                                   MODFLOW 6
                U.S. GEOLOGICAL SURVEY MODULAR HYDROLOGIC MODEL
                          GROUNDWATER FLOW MODEL (GWF)
                            VERSION 6.0.4 03/13/2019

   MODFLOW 6 compiled Mar 21 2019 15:37:31 with IFORT compiler (ver. 19.0.0)

This software has been approved for release by the U.S. Geological 
Survey (USGS). Although the software has been subjected to rigorous 
review, the USGS reserves the right to update the software as needed 
pursuant to further analysis and review. No warranty, expressed or 
implied, is made by the USGS or the U.S. Government as to the 
functionality of the software and related material nor shall the 
fact of release constitute any such warranty. Furthermore, the 
software is released on condition that neither the USGS nor the U.S. 
Government shall be held liable for any damages resulting from its 
authorized or unauthorized use. Also refer to the USGS Water 
Resources Software User Rights Notice for complete use, copyright, 
and distribution information.


MODFLOW was compiled using uniform precision.
Precision of REAL variables: 15


 OPENED test_trans.dis
 FILE TYPE:DIS6                   UNIT 1005   STATUS:OLD                 
 FORMAT:FORMATTED              ACCESS:SEQUENTIAL          
 ACTION:READ                


 OPENED test_trans.ic
 FILE TYPE:IC6                    UNIT 1006   STATUS:OLD                 
 FORMAT:FORMATTED              ACCESS:SEQUENTIAL          
 ACTION:READ                


 OPENED test_trans.npf
 FILE TYPE:NPF6                   UNIT 1007   STATUS:OLD                 
 FORMAT:FORMATTED              ACCESS:SEQUENTIAL          
 ACTION:READ                


 OPENED test_trans.oc
 FILE TYPE:OC6                    UNIT 1008   STATUS:OLD                 
 FORMAT:FORMATTED              ACCESS:SEQUENTIAL          
 ACTION:READ                


 OPENED test_trans.sto
 FILE TYPE:STO6                   UNIT 1009   STATUS:OLD                 
 FORMAT:FORMATTED              ACCESS:SEQUENTIAL          
 ACTION:READ                


 OPENED test_trans.rcha
 FILE TYPE:RCH6                   UNIT 1010   STATUS:OLD                 
 FORMAT:FORMATTED              ACCESS:SEQUENTIAL          
 ACTION:READ                


 OPENED test_trans.chd
 FILE TYPE:CHD6                   UNIT 1011   STATUS:OLD                 
 FORMAT:FORMATTED              ACCESS:SEQUENTIAL          
 ACTION:READ                


 OPENED test_trans.obs
 FILE TYPE:OBS6                   UNIT 1012   STATUS:OLD                 
 FORMAT:FORMATTED              ACCESS:SEQUENTIAL          
 ACTION:READ                

 NAMEFILE OPTIONS:
    FLOWS WILL BE SAVED TO BUDGET FILE SPECIFIED IN OUTPUT CONTROL

 DIS -- STRUCTURED GRID DISCRETIZATION PACKAGE, VERSION 2 : 3/27/2014 - INPUT READ FROM UNIT 1005


 PROCESSING DISCRETIZATION OPTIONS
 END OF DISCRETIZATION OPTIONS
 MODEL LENGTH UNIT IS UNDEFINED
 PROCESSING DISCRETIZATION DIMENSIONS
    NLAY =       1
    NROW =      30
    NCOL =      30
 END OF DISCRETIZATION DIMENSIONS
 PROCESSING GRIDDATA

                     DELR =   10.00000    

                     DELC =   10.00000    

 TOP ELEVATION OF LAYER 1 =   30.00000    

   MODEL LAYER BOTTOM EL. =   23.00000    

                  IDOMAIN = 1
 END PROCESSING GRIDDATA

 NPF -- NODE PROPERTY FLOW PACKAGE, VERSION 1, 3/30/2015 INPUT READ FROM UNIT 1007


 PROCESSING NPF OPTIONS
    CELL-BY-CELL FLOW INFORMATION WILL BE SAVED TO BINARY FILE WHENEVER ICBCFL IS NOT ZERO.
 END OF NPF OPTIONS

 RCH   -- RCH PACKAGE, VERSION 8, 2/22/2014 INPUT READ FROM UNIT 1010

 PROCESSING RCH OPTIONS
    RECHARGE INPUT WILL BE READ AS ARRAY(S).
 END OF RCH OPTIONS

 CHD   -- CHD PACKAGE, VERSION 8, 2/22/2014 INPUT READ FROM UNIT 1011

 PROCESSING CHD OPTIONS
 END OF CHD OPTIONS

 PROCESSING CHD DIMENSIONS
    MAXBOUND =      30
 END OF CHD DIMENSIONS

 IC -- INITIAL CONDITIONS PACKAGE, VERSION 8, 3/28/2015 INPUT READ FROM UNIT 1006
 PROCESSING GRIDDATA

     INITIAL HEAD =   25.00000    
 END PROCESSING GRIDDATA
 PROCESSING GRIDDATA

                ICELLTYPE = 1

                        K =   8.640000    
 K33 not provided.  Assuming K33 = K.
 K22 not provided.  Assuming K22 = K.
 END PROCESSING GRIDDATA

 STO -- STORAGE PACKAGE, VERSION 1, 5/19/2014 INPUT READ FROM UNIT 1009


 PROCESSING STORAGE OPTIONS
    CELL-BY-CELL FLOW INFORMATION WILL BE SAVED TO BINARY FILE WHENEVER ICBCFL IS NOT ZERO.
 END OF STORAGE OPTIONS
 PROCESSING GRIDDATA

                 ICONVERT = 1

         SPECIFIC STORAGE =  0.1000000E-04

           SPECIFIC YIELD =  0.2000000    
 END PROCESSING GRIDDATA

The observation utility is active for "TEST_TRANS"

Processing observation options:

Text output number of digits of precision set to: 10
The PRINT_INPUT option has been specified.


Observations read from file "test_trans.obs":
Name                                      Type                             Time         Location data
----------------------------------------  -------------------------------  -----------  --------------------------
H1                                        Continuous HEAD                  All times    "1 2 28"
ICF1_1.0                                  Continuous FLOW-JA-FACE          All times    "1 5 6  1 6 6"
H3-13-9                                   Continuous HEAD                  All times    "1 13 9"
    BINARY GRID INFORMATION WILL BE WRITTEN TO:
      UNIT NUMBER: 1017
      FILE NAME: C:\Users\emmal\Documents\GitHub\TM_Ludovic_Schorpp\codes_tests\notebooks_essais\workspace\test_trans.dis.grb

 OPENED C:\Users\emmal\Documents\GitHub\TM_Ludovic_Schorpp\codes_tests\notebooks_essais\workspace\test_trans.dis.grb
 FILE TYPE:DATA(BINARY)   UNIT 1017   STATUS:REPLACE             
 FORMAT:UNFORMATTED            ACCESS:STREAM              
 ACTION:READWRITE           

      THE LAST TIME STEP WILL BE PRINTED
      THE LAST TIME STEP WILL BE PRINTED
 PROCESSING OC OPTIONS
    BUDGET INFORMATION WILL BE WRITTEN TO:
      UNIT NUMBER: 1018
      FILE NAME: test_trans.cbb

 OPENED test_trans.cbb
 FILE TYPE:DATA(BINARY)   UNIT 1018   STATUS:REPLACE             
 FORMAT:UNFORMATTED            ACCESS:STREAM              
 ACTION:READWRITE           

    HEAD INFORMATION WILL BE WRITTEN TO:
      UNIT NUMBER: 1019
      FILE NAME: test_trans.hds

 OPENED test_trans.hds
 FILE TYPE:DATA(BINARY)   UNIT 1019   STATUS:REPLACE             
 FORMAT:UNFORMATTED            ACCESS:STREAM              
 ACTION:READWRITE           

 END OF OC OPTIONS

 BEGIN READING OUTPUT CONTROL FOR STRESS PERIOD 1
      ALL TIME STEPS WILL BE SAVED
      ALL TIME STEPS WILL BE SAVED
      THE FIRST TIME STEP WILL BE PRINTED
      THE LAST TIME STEP WILL BE PRINTED
      THE LAST TIME STEP WILL BE PRINTED

 END READING OUTPUT CONTROL FOR STRESS PERIOD 1


 UPDATING STORAGE VALUES
 END UPDATING STORAGE VALUES


 STRESS PERIOD 1 IS STEADY-STATE


                 RECHARGE =  0.2739730E-02
 UBDSV1 SAVING           STO-SS ON UNIT   1018 AT TIME STEP      1, STRESS PERIOD      1
 UBDSV1 SAVING           STO-SY ON UNIT   1018 AT TIME STEP      1, STRESS PERIOD      1
 UBDSV1 SAVING     FLOW-JA-FACE ON UNIT   1018 AT TIME STEP      1, STRESS PERIOD      1
 UBDSV06 SAVING              RCH IN MODEL TEST_TRANS       PACKAGE TEST_TRANS      CONNECTED TO MODEL TEST_TRANS       PACKAGE RCHA             ON UNIT   1018 AT TIME STEP      1, STRESS PERIOD      1
 UBDSV06 SAVING              CHD IN MODEL TEST_TRANS       PACKAGE TEST_TRANS      CONNECTED TO MODEL TEST_TRANS       PACKAGE CHD              ON UNIT   1018 AT TIME STEP      1, STRESS PERIOD      1
1
  HEAD IN LAYER   1 AT END OF TIME STEP   1 IN STRESS PERIOD    1
  ---------------------------------------------------------------------------

                1               2               3               4               5               6               7               8               9              10
               11              12              13              14              15              16              17              18              19              20
               21              22              23              24              25              26              27              28              29              30
 ................................................................................................................................................................
   1      28.3696         28.3636         28.3518         28.3340         28.3102         28.2802         28.2440         28.2015         28.1525         28.0968    
          28.0342         27.9644         27.8871         27.8020         27.7086         27.6065         27.4949         27.3733         27.2407         27.0961    
          26.9382         26.7652         26.5749         26.3645         26.1298         25.8647         25.5597         25.1976         24.7404         23.4467    
   2      28.3696         28.3637         28.3518         28.3340         28.3101         28.2802         28.2440         28.2015         28.1525         28.0968    
          28.0342         27.9644         27.8871         27.8020         27.7086         27.6065         27.4949         27.3733         27.2407         27.0961    
          26.9382         26.7652         26.5749         26.3645         26.1298         25.8647         25.5597         25.1976         24.7404         23.4467    
   3      28.3696         28.3637         28.3518         28.3340         28.3102         28.2802         28.2440         28.2015         28.1525         28.0968    
          28.0342         27.9644         27.8871         27.8020         27.7086         27.6065         27.4949         27.3733         27.2407         27.0961    
          26.9382         26.7652         26.5749         26.3645         26.1298         25.8647         25.5597         25.1976         24.7404         23.4467    
   4      28.3696         28.3637         28.3518         28.3340         28.3102         28.2802         28.2440         28.2015         28.1525         28.0968    
          28.0342         27.9644         27.8871         27.8020         27.7086         27.6065         27.4949         27.3733         27.2407         27.0961    
          26.9382         26.7652         26.5749         26.3645         26.1298         25.8647         25.5597         25.1976         24.7404         23.4467    
   5      28.3696         28.3637         28.3518         28.3340         28.3102         28.2802         28.2440         28.2015         28.1525         28.0968    
          28.0342         27.9644         27.8871         27.8020         27.7086         27.6065         27.4949         27.3733         27.2407         27.0961    
          26.9382         26.7652         26.5749         26.3645         26.1298         25.8647         25.5597         25.1976         24.7404         23.4467    
   6      28.3696         28.3637         28.3518         28.3340         28.3102         28.2802         28.2440         28.2015         28.1525         28.0968    
          28.0342         27.9644         27.8871         27.8020         27.7086         27.6065         27.4949         27.3733         27.2407         27.0961    
          26.9382         26.7652         26.5749         26.3645         26.1298         25.8647         25.5597         25.1976         24.7404         23.4467    
   7      28.3695         28.3636         28.3518         28.3340         28.3102         28.2802         28.2441         28.2015         28.1525         28.0968    
          28.0342         27.9644         27.8871         27.8020         27.7086         27.6065         27.4949         27.3733         27.2407         27.0961    
          26.9382         26.7652         26.5749         26.3645         26.1298         25.8647         25.5597         25.1976         24.7404         23.4467    
   8      28.3695         28.3636         28.3518         28.3340         28.3102         28.2802         28.2441         28.2015         28.1525         28.0968    
          28.0342         27.9644         27.8871         27.8020         27.7086         27.6065         27.4949         27.3733         27.2407         27.0961    
          26.9382         26.7652         26.5749         26.3645         26.1298         25.8647         25.5597         25.1976         24.7404         23.4467    
   9      28.3695         28.3636         28.3518         28.3340         28.3102         28.2802         28.2441         28.2015         28.1525         28.0968    
          28.0342         27.9644         27.8871         27.8020         27.7086         27.6065         27.4949         27.3733         27.2407         27.0961    
          26.9382         26.7652         26.5749         26.3645         26.1298         25.8647         25.5597         25.1976         24.7404         23.4467    
  10      28.3695         28.3636         28.3518         28.3340         28.3102         28.2802         28.2441         28.2015         28.1525         28.0968    
          28.0342         27.9644         27.8871         27.8020         27.7086         27.6065         27.4949         27.3733         27.2407         27.0961    
          26.9382         26.7652         26.5749         26.3645         26.1298         25.8647         25.5597         25.1976         24.7404         23.4467    
  11      28.3695         28.3636         28.3518         28.3340         28.3102         28.2802         28.2441         28.2015         28.1525         28.0968    
          28.0342         27.9644         27.8871         27.8020         27.7086         27.6065         27.4949         27.3733         27.2407         27.0961    
          26.9382         26.7652         26.5749         26.3645         26.1298         25.8647         25.5597         25.1976         24.7404         23.4467    
  12      28.3696         28.3636         28.3518         28.3340         28.3101         28.2802         28.2440         28.2015         28.1525         28.0968    
          28.0342         27.9644         27.8871         27.8020         27.7086         27.6065         27.4949         27.3733         27.2407         27.0961    
          26.9382         26.7652         26.5749         26.3645         26.1298         25.8647         25.5597         25.1976         24.7404         23.4467    
  13      28.3696         28.3636         28.3518         28.3340         28.3101         28.2802         28.2440         28.2015         28.1525         28.0968    
          28.0342         27.9644         27.8871         27.8020         27.7086         27.6065         27.4949         27.3733         27.2407         27.0961    
          26.9382         26.7652         26.5749         26.3645         26.1298         25.8647         25.5597         25.1976         24.7404         23.4467    
  14      28.3696         28.3637         28.3518         28.3340         28.3101         28.2802         28.2440         28.2015         28.1525         28.0968    
          28.0342         27.9644         27.8871         27.8020         27.7086         27.6065         27.4949         27.3733         27.2407         27.0961    
          26.9382         26.7652         26.5749         26.3645         26.1298         25.8647         25.5597         25.1976         24.7404         23.4467    
  15      28.3696         28.3637         28.3518         28.3340         28.3102         28.2802         28.2440         28.2015         28.1525         28.0968    
          28.0342         27.9644         27.8871         27.8020         27.7086         27.6065         27.4949         27.3733         27.2407         27.0961    
          26.9382         26.7652         26.5749         26.3645         26.1298         25.8647         25.5597         25.1976         24.7404         23.4467    
  16      28.3696         28.3637         28.3518         28.3340         28.3102         28.2802         28.2440         28.2015         28.1525         28.0968    
          28.0342         27.9644         27.8871         27.8020         27.7086         27.6065         27.4949         27.3733         27.2407         27.0961    
          26.9382         26.7652         26.5749         26.3645         26.1298         25.8647         25.5597         25.1976         24.7404         23.4467    
  17      28.3696         28.3637         28.3518         28.3340         28.3102         28.2802         28.2440         28.2015         28.1525         28.0968    
          28.0342         27.9644         27.8871         27.8020         27.7086         27.6065         27.4949         27.3733         27.2407         27.0961    
          26.9382         26.7652         26.5749         26.3645         26.1298         25.8647         25.5597         25.1976         24.7404         23.4467    
  18      28.3696         28.3637         28.3518         28.3340         28.3102         28.2802         28.2440         28.2015         28.1525         28.0968    
          28.0342         27.9644         27.8871         27.8020         27.7086         27.6065         27.4949         27.3733         27.2407         27.0961    
          26.9382         26.7652         26.5749         26.3645         26.1298         25.8647         25.5597         25.1976         24.7404         23.4467    
  19      28.3696         28.3637         28.3518         28.3340         28.3102         28.2802         28.2440         28.2015         28.1525         28.0968    
          28.0342         27.9644         27.8871         27.8020         27.7086         27.6065         27.4949         27.3733         27.2407         27.0961    
          26.9382         26.7652         26.5749         26.3645         26.1298         25.8647         25.5597         25.1976         24.7404         23.4467    
  20      28.3696         28.3637         28.3518         28.3340         28.3102         28.2802         28.2441         28.2015         28.1525         28.0968    
          28.0342         27.9644         27.8871         27.8020         27.7086         27.6065         27.4949         27.3733         27.2407         27.0961    
          26.9382         26.7652         26.5749         26.3645         26.1298         25.8647         25.5597         25.1976         24.7404         23.4467    
  21      28.3696         28.3637         28.3518         28.3340         28.3102         28.2802         28.2441         28.2015         28.1525         28.0968    
          28.0342         27.9644         27.8871         27.8020         27.7086         27.6065         27.4949         27.3733         27.2407         27.0961    
          26.9382         26.7652         26.5749         26.3645         26.1297         25.8647         25.5597         25.1976         24.7404         23.4467    
  22      28.3696         28.3637         28.3518         28.3340         28.3102         28.2802         28.2441         28.2015         28.1525         28.0968    
          28.0342         27.9644         27.8871         27.8020         27.7086         27.6065         27.4949         27.3733         27.2407         27.0961    
          26.9382         26.7652         26.5749         26.3645         26.1297         25.8647         25.5597         25.1976         24.7404         23.4467    
  23      28.3696         28.3637         28.3518         28.3340         28.3102         28.2802         28.2441         28.2015         28.1525         28.0968    
          28.0342         27.9644         27.8871         27.8020         27.7086         27.6065         27.4949         27.3733         27.2407         27.0961    
          26.9382         26.7652         26.5749         26.3645         26.1297         25.8647         25.5597         25.1976         24.7404         23.4467    
  24      28.3696         28.3637         28.3518         28.3340         28.3102         28.2802         28.2441         28.2015         28.1525         28.0968    
          28.0342         27.9644         27.8871         27.8020         27.7086         27.6065         27.4949         27.3733         27.2407         27.0961    
          26.9382         26.7652         26.5749         26.3645         26.1297         25.8647         25.5597         25.1976         24.7404         23.4467    
  25      28.3696         28.3637         28.3518         28.3340         28.3102         28.2802         28.2441         28.2015         28.1525         28.0968    
          28.0342         27.9644         27.8871         27.8020         27.7086         27.6065         27.4949         27.3733         27.2407         27.0961    
          26.9382         26.7652         26.5749         26.3645         26.1297         25.8647         25.5597         25.1976         24.7404         23.4467    
  26      28.3696         28.3637         28.3518         28.3340         28.3102         28.2802         28.2441         28.2015         28.1525         28.0968    
          28.0342         27.9644         27.8871         27.8020         27.7086         27.6065         27.4949         27.3733         27.2407         27.0961    
          26.9382         26.7651         26.5749         26.3645         26.1297         25.8647         25.5597         25.1976         24.7404         23.4467    
  27      28.3696         28.3637         28.3518         28.3340         28.3102         28.2802         28.2440         28.2015         28.1525         28.0968    
          28.0342         27.9644         27.8871         27.8020         27.7086         27.6065         27.4949         27.3733         27.2407         27.0961    
          26.9381         26.7651         26.5749         26.3645         26.1297         25.8647         25.5597         25.1976         24.7404         23.4467    
  28      28.3696         28.3637         28.3518         28.3340         28.3102         28.2802         28.2440         28.2015         28.1525         28.0968    
          28.0342         27.9644         27.8871         27.8020         27.7086         27.6065         27.4949         27.3733         27.2407         27.0961    
          26.9381         26.7651         26.5749         26.3645         26.1297         25.8647         25.5597         25.1976         24.7404         23.4467    
  29      28.3696         28.3637         28.3518         28.3340         28.3102         28.2802         28.2440         28.2015         28.1525         28.0968    
          28.0342         27.9644         27.8871         27.8020         27.7086         27.6065         27.4949         27.3733         27.2407         27.0961    
          26.9381         26.7651         26.5749         26.3645         26.1297         25.8647         25.5597         25.1976         24.7404         23.4467    
  30      28.3696         28.3636         28.3518         28.3340         28.3102         28.2802         28.2440         28.2015         28.1525         28.0968    
          28.0342         27.9644         27.8871         27.8020         27.7086         27.6065         27.4949         27.3733         27.2407         27.0961    
          26.9381         26.7651         26.5749         26.3645         26.1297         25.8647         25.5597         25.1976         24.7404         23.4467    

 HEAD WILL BE SAVED ON UNIT 1019 AT END OF TIME STEP    1, STRESS PERIOD    1


  VOLUME BUDGET FOR ENTIRE MODEL AT END OF TIME STEP    1, STRESS PERIOD   1
  ---------------------------------------------------------------------------------------------------

     CUMULATIVE VOLUME      L**3       RATES FOR THIS TIME STEP      L**3/T          PACKAGE NAME    
     ------------------                 ------------------------                     ----------------

           IN:                                      IN:
           ---                                      ---
              STO-SS =           0.0000                STO-SS =           0.0000     STORAGE         
              STO-SY =           0.0000                STO-SY =           0.0000     STORAGE         
                 RCH =         238.3565                   RCH =         238.3565     RCHA            
                 CHD =           0.0000                   CHD =           0.0000     CHD             

            TOTAL IN =         238.3565              TOTAL IN =         238.3565

          OUT:                                     OUT:
          ----                                     ----
              STO-SS =           0.0000                STO-SS =           0.0000     STORAGE         
              STO-SY =           0.0000                STO-SY =           0.0000     STORAGE         
                 RCH =           0.0000                   RCH =           0.0000     RCHA            
                 CHD =         238.4015                   CHD =         238.4015     CHD             

           TOTAL OUT =         238.4015             TOTAL OUT =         238.4015

            IN - OUT =      -4.4991E-02              IN - OUT =      -4.4991E-02

 PERCENT DISCREPANCY =          -0.02     PERCENT DISCREPANCY =          -0.02




         TIME SUMMARY AT END OF TIME STEP    1 IN STRESS PERIOD    1
                    SECONDS     MINUTES      HOURS       DAYS        YEARS
                    -----------------------------------------------------------
   TIME STEP LENGTH  86400.      1440.0      24.000      1.0000     2.73785E-03
 STRESS PERIOD TIME  86400.      1440.0      24.000      1.0000     2.73785E-03
         TOTAL TIME  86400.      1440.0      24.000      1.0000     2.73785E-03

 END OF FILE DETECTED IN OUTPUT CONTROL.
 CURRENT OUTPUT CONTROL SETTINGS WILL BE 
 REPEATED UNTIL THE END OF THE SIMULATION.

 OUTPUT CONTROL FOR STRESS PERIOD 2 IS REPEATED USING SETTINGS FROM A PREVIOUS STRESS PERIOD.


 UPDATING STORAGE VALUES
 END UPDATING STORAGE VALUES


 STRESS PERIOD 2 IS TRANSIENT


                 RECHARGE =  0.3287670E-02
 UBDSV1 SAVING           STO-SS ON UNIT   1018 AT TIME STEP      1, STRESS PERIOD      2
 UBDSV1 SAVING           STO-SY ON UNIT   1018 AT TIME STEP      1, STRESS PERIOD      2
 UBDSV1 SAVING     FLOW-JA-FACE ON UNIT   1018 AT TIME STEP      1, STRESS PERIOD      2
 UBDSV06 SAVING              RCH IN MODEL TEST_TRANS       PACKAGE TEST_TRANS      CONNECTED TO MODEL TEST_TRANS       PACKAGE RCHA             ON UNIT   1018 AT TIME STEP      1, STRESS PERIOD      2
 UBDSV06 SAVING              CHD IN MODEL TEST_TRANS       PACKAGE TEST_TRANS      CONNECTED TO MODEL TEST_TRANS       PACKAGE CHD              ON UNIT   1018 AT TIME STEP      1, STRESS PERIOD      2
1
  HEAD IN LAYER   1 AT END OF TIME STEP   1 IN STRESS PERIOD    2
  ---------------------------------------------------------------------------

                1               2               3               4               5               6               7               8               9              10
               11              12              13              14              15              16              17              18              19              20
               21              22              23              24              25              26              27              28              29              30
 ................................................................................................................................................................
   1      28.3777         28.3718         28.3599         28.3421         28.3183         28.2883         28.2522         28.2097         28.1606         28.1049    
          28.0423         27.9725         27.8952         27.8101         27.7167         27.6145         27.5030         27.3813         27.2487         27.1040    
          26.9459         26.7727         26.5821         26.3712         26.1355         25.8687         25.5603         25.1911         24.7156         23.8794    
   2      28.3777         28.3718         28.3599         28.3421         28.3183         28.2883         28.2522         28.2097         28.1606         28.1049    
          28.0423         27.9725         27.8952         27.8101         27.7167         27.6145         27.5030         27.3813         27.2487         27.1040    
          26.9459         26.7727         26.5821         26.3712         26.1355         25.8687         25.5603         25.1911         24.7156         23.8794    
   3      28.3777         28.3718         28.3599         28.3421         28.3183         28.2883         28.2522         28.2097         28.1606         28.1049    
          28.0423         27.9725         27.8952         27.8101         27.7167         27.6145         27.5030         27.3813         27.2487         27.1040    
          26.9459         26.7727         26.5821         26.3712         26.1355         25.8687         25.5603         25.1911         24.7156         23.8794    
   4      28.3777         28.3718         28.3599         28.3421         28.3183         28.2883         28.2522         28.2097         28.1606         28.1049    
          28.0423         27.9725         27.8952         27.8101         27.7167         27.6145         27.5030         27.3813         27.2487         27.1040    
          26.9459         26.7727         26.5821         26.3712         26.1355         25.8687         25.5603         25.1911         24.7156         23.8794    
   5      28.3777         28.3718         28.3599         28.3421         28.3183         28.2883         28.2522         28.2097         28.1606         28.1049    
          28.0423         27.9725         27.8952         27.8101         27.7167         27.6145         27.5030         27.3813         27.2487         27.1040    
          26.9459         26.7727         26.5821         26.3712         26.1355         25.8687         25.5603         25.1911         24.7156         23.8794    
   6      28.3777         28.3718         28.3599         28.3421         28.3183         28.2883         28.2522         28.2097         28.1606         28.1049    
          28.0423         27.9725         27.8952         27.8101         27.7167         27.6145         27.5030         27.3813         27.2487         27.1040    
          26.9459         26.7727         26.5821         26.3712         26.1355         25.8687         25.5603         25.1911         24.7156         23.8794    
   7      28.3777         28.3718         28.3599         28.3421         28.3183         28.2883         28.2522         28.2097         28.1606         28.1049    
          28.0423         27.9725         27.8952         27.8101         27.7167         27.6145         27.5030         27.3813         27.2487         27.1040    
          26.9459         26.7727         26.5821         26.3711         26.1355         25.8687         25.5603         25.1911         24.7156         23.8794    
   8      28.3777         28.3718         28.3599         28.3421         28.3183         28.2883         28.2522         28.2097         28.1606         28.1049    
          28.0423         27.9725         27.8952         27.8101         27.7167         27.6145         27.5030         27.3813         27.2487         27.1040    
          26.9459         26.7727         26.5821         26.3711         26.1355         25.8687         25.5603         25.1911         24.7156         23.8794    
   9      28.3777         28.3718         28.3599         28.3421         28.3183         28.2883         28.2522         28.2097         28.1606         28.1049    
          28.0423         27.9725         27.8952         27.8101         27.7167         27.6145         27.5030         27.3813         27.2487         27.1040    
          26.9459         26.7727         26.5821         26.3711         26.1355         25.8687         25.5603         25.1911         24.7156         23.8794    
  10      28.3777         28.3718         28.3599         28.3421         28.3183         28.2883         28.2522         28.2097         28.1606         28.1049    
          28.0423         27.9725         27.8952         27.8101         27.7167         27.6145         27.5030         27.3813         27.2487         27.1040    
          26.9459         26.7727         26.5821         26.3711         26.1355         25.8687         25.5603         25.1911         24.7156         23.8794    
  11      28.3777         28.3718         28.3599         28.3421         28.3183         28.2883         28.2522         28.2097         28.1606         28.1049    
          28.0423         27.9725         27.8952         27.8101         27.7167         27.6145         27.5030         27.3813         27.2487         27.1040    
          26.9459         26.7727         26.5821         26.3711         26.1355         25.8687         25.5603         25.1911         24.7156         23.8794    
  12      28.3777         28.3718         28.3599         28.3421         28.3183         28.2883         28.2522         28.2097         28.1606         28.1049    
          28.0423         27.9725         27.8952         27.8101         27.7167         27.6145         27.5030         27.3813         27.2487         27.1040    
          26.9459         26.7727         26.5821         26.3711         26.1355         25.8687         25.5603         25.1911         24.7156         23.8794    
  13      28.3777         28.3718         28.3599         28.3421         28.3183         28.2883         28.2522         28.2097         28.1606         28.1049    
          28.0423         27.9725         27.8952         27.8101         27.7167         27.6145         27.5030         27.3813         27.2487         27.1040    
          26.9459         26.7727         26.5821         26.3711         26.1355         25.8687         25.5603         25.1911         24.7156         23.8794    
  14      28.3777         28.3718         28.3599         28.3421         28.3183         28.2883         28.2522         28.2097         28.1606         28.1049    
          28.0423         27.9725         27.8952         27.8101         27.7167         27.6145         27.5030         27.3813         27.2487         27.1040    
          26.9459         26.7727         26.5821         26.3711         26.1355         25.8687         25.5603         25.1911         24.7156         23.8794    
  15      28.3777         28.3718         28.3599         28.3421         28.3183         28.2883         28.2522         28.2097         28.1606         28.1049    
          28.0423         27.9725         27.8952         27.8101         27.7167         27.6145         27.5030         27.3813         27.2487         27.1040    
          26.9459         26.7727         26.5821         26.3711         26.1355         25.8687         25.5603         25.1911         24.7156         23.8794    
  16      28.3777         28.3718         28.3599         28.3421         28.3183         28.2883         28.2522         28.2097         28.1606         28.1049    
          28.0423         27.9725         27.8952         27.8101         27.7167         27.6145         27.5030         27.3813         27.2487         27.1040    
          26.9459         26.7727         26.5821         26.3711         26.1355         25.8687         25.5603         25.1911         24.7156         23.8794    
  17      28.3777         28.3718         28.3599         28.3421         28.3183         28.2883         28.2522         28.2097         28.1606         28.1049    
          28.0423         27.9725         27.8952         27.8101         27.7167         27.6145         27.5030         27.3813         27.2487         27.1040    
          26.9459         26.7727         26.5821         26.3711         26.1355         25.8687         25.5603         25.1911         24.7156         23.8794    
  18      28.3777         28.3718         28.3599         28.3421         28.3183         28.2883         28.2522         28.2097         28.1606         28.1049    
          28.0423         27.9725         27.8952         27.8101         27.7167         27.6145         27.5030         27.3813         27.2487         27.1040    
          26.9459         26.7727         26.5821         26.3711         26.1355         25.8687         25.5603         25.1911         24.7156         23.8794    
  19      28.3777         28.3718         28.3599         28.3421         28.3183         28.2883         28.2522         28.2097         28.1606         28.1049    
          28.0423         27.9725         27.8952         27.8101         27.7167         27.6145         27.5030         27.3813         27.2487         27.1040    
          26.9459         26.7727         26.5821         26.3711         26.1355         25.8687         25.5603         25.1911         24.7156         23.8794    
  20      28.3777         28.3718         28.3599         28.3421         28.3183         28.2883         28.2522         28.2097         28.1606         28.1049    
          28.0423         27.9725         27.8952         27.8101         27.7167         27.6145         27.5030         27.3813         27.2487         27.1040    
          26.9459         26.7727         26.5821         26.3711         26.1355         25.8687         25.5603         25.1911         24.7156         23.8794    
  21      28.3777         28.3718         28.3599         28.3421         28.3183         28.2883         28.2522         28.2097         28.1606         28.1049    
          28.0423         27.9725         27.8952         27.8101         27.7167         27.6145         27.5030         27.3813         27.2487         27.1040    
          26.9459         26.7727         26.5821         26.3711         26.1355         25.8687         25.5603         25.1911         24.7156         23.8794    
  22      28.3777         28.3718         28.3599         28.3421         28.3183         28.2883         28.2522         28.2097         28.1606         28.1049    
          28.0423         27.9725         27.8952         27.8101         27.7167         27.6145         27.5030         27.3813         27.2487         27.1040    
          26.9459         26.7727         26.5821         26.3711         26.1355         25.8687         25.5603         25.1911         24.7156         23.8794    
  23      28.3777         28.3718         28.3599         28.3421         28.3183         28.2883         28.2522         28.2097         28.1606         28.1049    
          28.0423         27.9725         27.8952         27.8101         27.7167         27.6145         27.5030         27.3813         27.2487         27.1040    
          26.9459         26.7727         26.5821         26.3711         26.1355         25.8687         25.5603         25.1910         24.7156         23.8794    
  24      28.3777         28.3718         28.3599         28.3421         28.3183         28.2883         28.2522         28.2097         28.1606         28.1049    
          28.0423         27.9725         27.8952         27.8101         27.7167         27.6145         27.5030         27.3813         27.2487         27.1040    
          26.9459         26.7727         26.5821         26.3711         26.1355         25.8687         25.5603         25.1910         24.7156         23.8794    
  25      28.3777         28.3718         28.3599         28.3421         28.3183         28.2883         28.2522         28.2097         28.1606         28.1049    
          28.0423         27.9725         27.8952         27.8101         27.7167         27.6145         27.5030         27.3813         27.2487         27.1040    
          26.9459         26.7727         26.5821         26.3711         26.1355         25.8687         25.5603         25.1910         24.7156         23.8794    
  26      28.3777         28.3718         28.3599         28.3421         28.3183         28.2883         28.2522         28.2097         28.1606         28.1049    
          28.0423         27.9725         27.8952         27.8101         27.7167         27.6145         27.5030         27.3813         27.2487         27.1040    
          26.9459         26.7727         26.5821         26.3711         26.1355         25.8687         25.5603         25.1910         24.7156         23.8794    
  27      28.3777         28.3718         28.3599         28.3421         28.3183         28.2883         28.2522         28.2097         28.1606         28.1049    
          28.0423         27.9725         27.8952         27.8101         27.7167         27.6145         27.5030         27.3813         27.2487         27.1040    
          26.9459         26.7727         26.5821         26.3711         26.1355         25.8687         25.5603         25.1910         24.7156         23.8794    
  28      28.3777         28.3718         28.3599         28.3421         28.3183         28.2883         28.2522         28.2097         28.1606         28.1049    
          28.0423         27.9725         27.8952         27.8101         27.7167         27.6145         27.5030         27.3813         27.2487         27.1040    
          26.9459         26.7727         26.5821         26.3711         26.1355         25.8687         25.5603         25.1910         24.7156         23.8794    
  29      28.3777         28.3718         28.3599         28.3421         28.3183         28.2883         28.2522         28.2097         28.1606         28.1049    
          28.0423         27.9725         27.8952         27.8101         27.7167         27.6145         27.5030         27.3813         27.2487         27.1040    
          26.9459         26.7727         26.5821         26.3711         26.1355         25.8687         25.5603         25.1910         24.7156         23.8794    
  30      28.3777         28.3718         28.3599         28.3421         28.3183         28.2883         28.2522         28.2097         28.1606         28.1049    
          28.0423         27.9725         27.8952         27.8101         27.7167         27.6145         27.5030         27.3813         27.2487         27.1040    
          26.9459         26.7727         26.5821         26.3711         26.1355         25.8687         25.5603         25.1910         24.7156         23.8794    

 HEAD WILL BE SAVED ON UNIT 1019 AT END OF TIME STEP    1, STRESS PERIOD    2



         TIME SUMMARY AT END OF TIME STEP    1 IN STRESS PERIOD    2
                    SECONDS     MINUTES      HOURS       DAYS        YEARS
                    -----------------------------------------------------------
   TIME STEP LENGTH 2.59200E+05  4320.0      72.000      3.0000     8.21355E-03
 STRESS PERIOD TIME 2.59200E+05  4320.0      72.000      3.0000     8.21355E-03
         TOTAL TIME 3.45600E+05  5760.0      96.000      4.0000     1.09514E-02
 UBDSV1 SAVING           STO-SS ON UNIT   1018 AT TIME STEP      2, STRESS PERIOD      2
 UBDSV1 SAVING           STO-SY ON UNIT   1018 AT TIME STEP      2, STRESS PERIOD      2
 UBDSV1 SAVING     FLOW-JA-FACE ON UNIT   1018 AT TIME STEP      2, STRESS PERIOD      2
 UBDSV06 SAVING              RCH IN MODEL TEST_TRANS       PACKAGE TEST_TRANS      CONNECTED TO MODEL TEST_TRANS       PACKAGE RCHA             ON UNIT   1018 AT TIME STEP      2, STRESS PERIOD      2
 UBDSV06 SAVING              CHD IN MODEL TEST_TRANS       PACKAGE TEST_TRANS      CONNECTED TO MODEL TEST_TRANS       PACKAGE CHD              ON UNIT   1018 AT TIME STEP      2, STRESS PERIOD      2

 HEAD WILL BE SAVED ON UNIT 1019 AT END OF TIME STEP    2, STRESS PERIOD    2
 UBDSV1 SAVING           STO-SS ON UNIT   1018 AT TIME STEP      3, STRESS PERIOD      2
 UBDSV1 SAVING           STO-SY ON UNIT   1018 AT TIME STEP      3, STRESS PERIOD      2
 UBDSV1 SAVING     FLOW-JA-FACE ON UNIT   1018 AT TIME STEP      3, STRESS PERIOD      2
 UBDSV06 SAVING              RCH IN MODEL TEST_TRANS       PACKAGE TEST_TRANS      CONNECTED TO MODEL TEST_TRANS       PACKAGE RCHA             ON UNIT   1018 AT TIME STEP      3, STRESS PERIOD      2
 UBDSV06 SAVING              CHD IN MODEL TEST_TRANS       PACKAGE TEST_TRANS      CONNECTED TO MODEL TEST_TRANS       PACKAGE CHD              ON UNIT   1018 AT TIME STEP      3, STRESS PERIOD      2

 HEAD WILL BE SAVED ON UNIT 1019 AT END OF TIME STEP    3, STRESS PERIOD    2
 UBDSV1 SAVING           STO-SS ON UNIT   1018 AT TIME STEP      4, STRESS PERIOD      2
 UBDSV1 SAVING           STO-SY ON UNIT   1018 AT TIME STEP      4, STRESS PERIOD      2
 UBDSV1 SAVING     FLOW-JA-FACE ON UNIT   1018 AT TIME STEP      4, STRESS PERIOD      2
 UBDSV06 SAVING              RCH IN MODEL TEST_TRANS       PACKAGE TEST_TRANS      CONNECTED TO MODEL TEST_TRANS       PACKAGE RCHA             ON UNIT   1018 AT TIME STEP      4, STRESS PERIOD      2
 UBDSV06 SAVING              CHD IN MODEL TEST_TRANS       PACKAGE TEST_TRANS      CONNECTED TO MODEL TEST_TRANS       PACKAGE CHD              ON UNIT   1018 AT TIME STEP      4, STRESS PERIOD      2

 HEAD WILL BE SAVED ON UNIT 1019 AT END OF TIME STEP    4, STRESS PERIOD    2
 UBDSV1 SAVING           STO-SS ON UNIT   1018 AT TIME STEP      5, STRESS PERIOD      2
 UBDSV1 SAVING           STO-SY ON UNIT   1018 AT TIME STEP      5, STRESS PERIOD      2
 UBDSV1 SAVING     FLOW-JA-FACE ON UNIT   1018 AT TIME STEP      5, STRESS PERIOD      2
 UBDSV06 SAVING              RCH IN MODEL TEST_TRANS       PACKAGE TEST_TRANS      CONNECTED TO MODEL TEST_TRANS       PACKAGE RCHA             ON UNIT   1018 AT TIME STEP      5, STRESS PERIOD      2
 UBDSV06 SAVING              CHD IN MODEL TEST_TRANS       PACKAGE TEST_TRANS      CONNECTED TO MODEL TEST_TRANS       PACKAGE CHD              ON UNIT   1018 AT TIME STEP      5, STRESS PERIOD      2

 HEAD WILL BE SAVED ON UNIT 1019 AT END OF TIME STEP    5, STRESS PERIOD    2
 UBDSV1 SAVING           STO-SS ON UNIT   1018 AT TIME STEP      6, STRESS PERIOD      2
 UBDSV1 SAVING           STO-SY ON UNIT   1018 AT TIME STEP      6, STRESS PERIOD      2
 UBDSV1 SAVING     FLOW-JA-FACE ON UNIT   1018 AT TIME STEP      6, STRESS PERIOD      2
 UBDSV06 SAVING              RCH IN MODEL TEST_TRANS       PACKAGE TEST_TRANS      CONNECTED TO MODEL TEST_TRANS       PACKAGE RCHA             ON UNIT   1018 AT TIME STEP      6, STRESS PERIOD      2
 UBDSV06 SAVING              CHD IN MODEL TEST_TRANS       PACKAGE TEST_TRANS      CONNECTED TO MODEL TEST_TRANS       PACKAGE CHD              ON UNIT   1018 AT TIME STEP      6, STRESS PERIOD      2

 HEAD WILL BE SAVED ON UNIT 1019 AT END OF TIME STEP    6, STRESS PERIOD    2
 UBDSV1 SAVING           STO-SS ON UNIT   1018 AT TIME STEP      7, STRESS PERIOD      2
 UBDSV1 SAVING           STO-SY ON UNIT   1018 AT TIME STEP      7, STRESS PERIOD      2
 UBDSV1 SAVING     FLOW-JA-FACE ON UNIT   1018 AT TIME STEP      7, STRESS PERIOD      2
 UBDSV06 SAVING              RCH IN MODEL TEST_TRANS       PACKAGE TEST_TRANS      CONNECTED TO MODEL TEST_TRANS       PACKAGE RCHA             ON UNIT   1018 AT TIME STEP      7, STRESS PERIOD      2
 UBDSV06 SAVING              CHD IN MODEL TEST_TRANS       PACKAGE TEST_TRANS      CONNECTED TO MODEL TEST_TRANS       PACKAGE CHD              ON UNIT   1018 AT TIME STEP      7, STRESS PERIOD      2

 HEAD WILL BE SAVED ON UNIT 1019 AT END OF TIME STEP    7, STRESS PERIOD    2
 UBDSV1 SAVING           STO-SS ON UNIT   1018 AT TIME STEP      8, STRESS PERIOD      2
 UBDSV1 SAVING           STO-SY ON UNIT   1018 AT TIME STEP      8, STRESS PERIOD      2
 UBDSV1 SAVING     FLOW-JA-FACE ON UNIT   1018 AT TIME STEP      8, STRESS PERIOD      2
 UBDSV06 SAVING              RCH IN MODEL TEST_TRANS       PACKAGE TEST_TRANS      CONNECTED TO MODEL TEST_TRANS       PACKAGE RCHA             ON UNIT   1018 AT TIME STEP      8, STRESS PERIOD      2
 UBDSV06 SAVING              CHD IN MODEL TEST_TRANS       PACKAGE TEST_TRANS      CONNECTED TO MODEL TEST_TRANS       PACKAGE CHD              ON UNIT   1018 AT TIME STEP      8, STRESS PERIOD      2

 HEAD WILL BE SAVED ON UNIT 1019 AT END OF TIME STEP    8, STRESS PERIOD    2
 UBDSV1 SAVING           STO-SS ON UNIT   1018 AT TIME STEP      9, STRESS PERIOD      2
 UBDSV1 SAVING           STO-SY ON UNIT   1018 AT TIME STEP      9, STRESS PERIOD      2
 UBDSV1 SAVING     FLOW-JA-FACE ON UNIT   1018 AT TIME STEP      9, STRESS PERIOD      2
 UBDSV06 SAVING              RCH IN MODEL TEST_TRANS       PACKAGE TEST_TRANS      CONNECTED TO MODEL TEST_TRANS       PACKAGE RCHA             ON UNIT   1018 AT TIME STEP      9, STRESS PERIOD      2
 UBDSV06 SAVING              CHD IN MODEL TEST_TRANS       PACKAGE TEST_TRANS      CONNECTED TO MODEL TEST_TRANS       PACKAGE CHD              ON UNIT   1018 AT TIME STEP      9, STRESS PERIOD      2

 HEAD WILL BE SAVED ON UNIT 1019 AT END OF TIME STEP    9, STRESS PERIOD    2
 UBDSV1 SAVING           STO-SS ON UNIT   1018 AT TIME STEP     10, STRESS PERIOD      2
 UBDSV1 SAVING           STO-SY ON UNIT   1018 AT TIME STEP     10, STRESS PERIOD      2
 UBDSV1 SAVING     FLOW-JA-FACE ON UNIT   1018 AT TIME STEP     10, STRESS PERIOD      2
 UBDSV06 SAVING              RCH IN MODEL TEST_TRANS       PACKAGE TEST_TRANS      CONNECTED TO MODEL TEST_TRANS       PACKAGE RCHA             ON UNIT   1018 AT TIME STEP     10, STRESS PERIOD      2
 UBDSV06 SAVING              CHD IN MODEL TEST_TRANS       PACKAGE TEST_TRANS      CONNECTED TO MODEL TEST_TRANS       PACKAGE CHD              ON UNIT   1018 AT TIME STEP     10, STRESS PERIOD      2
1
  HEAD IN LAYER   1 AT END OF TIME STEP  10 IN STRESS PERIOD    2
  ---------------------------------------------------------------------------

                1               2               3               4               5               6               7               8               9              10
               11              12              13              14              15              16              17              18              19              20
               21              22              23              24              25              26              27              28              29              30
 ................................................................................................................................................................
   1      28.4474         28.4415         28.4296         28.4117         28.3877         28.3576         28.3212         28.2784         28.2290         28.1729    
          28.1098         28.0395         27.9615         27.8756         27.7812         27.6779         27.5649         27.4416         27.3071         27.1600    
          26.9992         26.8226         26.6280         26.4122         26.1707         25.8970         25.5804         25.2016         24.7161         23.8794    
   2      28.4474         28.4415         28.4296         28.4117         28.3877         28.3576         28.3212         28.2784         28.2290         28.1729    
          28.1098         28.0395         27.9615         27.8756         27.7812         27.6779         27.5649         27.4416         27.3071         27.1600    
          26.9992         26.8226         26.6280         26.4122         26.1707         25.8970         25.5804         25.2016         24.7161         23.8794    
   3      28.4474         28.4415         28.4296         28.4117         28.3877         28.3576         28.3212         28.2784         28.2290         28.1729    
          28.1098         28.0395         27.9615         27.8756         27.7812         27.6779         27.5649         27.4416         27.3071         27.1600    
          26.9992         26.8226         26.6280         26.4122         26.1707         25.8970         25.5804         25.2016         24.7161         23.8794    
   4      28.4474         28.4415         28.4296         28.4117         28.3877         28.3576         28.3212         28.2784         28.2290         28.1729    
          28.1098         28.0395         27.9615         27.8756         27.7812         27.6779         27.5649         27.4416         27.3071         27.1600    
          26.9992         26.8226         26.6280         26.4122         26.1707         25.8970         25.5804         25.2016         24.7161         23.8794    
   5      28.4474         28.4415         28.4296         28.4117         28.3877         28.3576         28.3212         28.2784         28.2290         28.1729    
          28.1098         28.0395         27.9615         27.8756         27.7812         27.6779         27.5649         27.4416         27.3071         27.1600    
          26.9992         26.8226         26.6280         26.4122         26.1707         25.8970         25.5804         25.2016         24.7161         23.8794    
   6      28.4474         28.4415         28.4296         28.4117         28.3877         28.3576         28.3212         28.2784         28.2290         28.1729    
          28.1098         28.0395         27.9615         27.8756         27.7812         27.6779         27.5649         27.4416         27.3071         27.1600    
          26.9992         26.8226         26.6280         26.4122         26.1707         25.8970         25.5804         25.2016         24.7161         23.8794    
   7      28.4474         28.4415         28.4296         28.4117         28.3877         28.3576         28.3212         28.2784         28.2290         28.1729    
          28.1098         28.0395         27.9615         27.8756         27.7812         27.6779         27.5649         27.4416         27.3071         27.1600    
          26.9992         26.8226         26.6280         26.4122         26.1707         25.8970         25.5804         25.2016         24.7161         23.8794    
   8      28.4474         28.4415         28.4296         28.4117         28.3877         28.3576         28.3212         28.2784         28.2290         28.1729    
          28.1098         28.0395         27.9615         27.8756         27.7812         27.6779         27.5649         27.4416         27.3071         27.1600    
          26.9992         26.8226         26.6280         26.4122         26.1707         25.8970         25.5804         25.2016         24.7161         23.8794    
   9      28.4474         28.4415         28.4296         28.4117         28.3877         28.3576         28.3212         28.2784         28.2290         28.1729    
          28.1098         28.0395         27.9615         27.8756         27.7812         27.6779         27.5649         27.4416         27.3071         27.1600    
          26.9992         26.8226         26.6280         26.4122         26.1707         25.8970         25.5804         25.2016         24.7161         23.8794    
  10      28.4474         28.4415         28.4296         28.4117         28.3877         28.3576         28.3212         28.2784         28.2290         28.1729    
          28.1098         28.0395         27.9615         27.8756         27.7812         27.6779         27.5649         27.4416         27.3071         27.1600    
          26.9992         26.8226         26.6280         26.4122         26.1707         25.8970         25.5804         25.2016         24.7161         23.8794    
  11      28.4474         28.4415         28.4296         28.4117         28.3877         28.3576         28.3212         28.2784         28.2290         28.1729    
          28.1098         28.0395         27.9615         27.8756         27.7812         27.6779         27.5649         27.4416         27.3071         27.1600    
          26.9991         26.8226         26.6280         26.4122         26.1707         25.8970         25.5804         25.2016         24.7161         23.8794    
  12      28.4474         28.4415         28.4296         28.4117         28.3877         28.3576         28.3212         28.2784         28.2290         28.1729    
          28.1098         28.0395         27.9615         27.8756         27.7812         27.6779         27.5649         27.4416         27.3071         27.1600    
          26.9991         26.8226         26.6280         26.4122         26.1707         25.8970         25.5804         25.2016         24.7161         23.8794    
  13      28.4474         28.4415         28.4296         28.4117         28.3877         28.3576         28.3212         28.2784         28.2290         28.1729    
          28.1098         28.0395         27.9615         27.8756         27.7812         27.6779         27.5649         27.4416         27.3071         27.1600    
          26.9991         26.8226         26.6280         26.4122         26.1707         25.8970         25.5804         25.2016         24.7161         23.8794    
  14      28.4474         28.4415         28.4296         28.4117         28.3877         28.3576         28.3212         28.2784         28.2290         28.1729    
          28.1098         28.0395         27.9615         27.8756         27.7812         27.6779         27.5649         27.4416         27.3071         27.1600    
          26.9991         26.8226         26.6280         26.4122         26.1707         25.8970         25.5804         25.2016         24.7161         23.8794    
  15      28.4474         28.4415         28.4296         28.4117         28.3877         28.3576         28.3212         28.2784         28.2290         28.1729    
          28.1098         28.0395         27.9615         27.8756         27.7812         27.6779         27.5649         27.4416         27.3071         27.1600    
          26.9991         26.8226         26.6280         26.4122         26.1707         25.8970         25.5804         25.2016         24.7161         23.8794    
  16      28.4474         28.4415         28.4296         28.4117         28.3877         28.3576         28.3212         28.2784         28.2290         28.1729    
          28.1098         28.0395         27.9615         27.8756         27.7812         27.6779         27.5649         27.4416         27.3071         27.1600    
          26.9991         26.8226         26.6280         26.4122         26.1707         25.8970         25.5804         25.2016         24.7161         23.8794    
  17      28.4474         28.4415         28.4296         28.4117         28.3877         28.3576         28.3212         28.2784         28.2290         28.1729    
          28.1098         28.0395         27.9615         27.8756         27.7812         27.6779         27.5649         27.4416         27.3071         27.1600    
          26.9991         26.8226         26.6280         26.4122         26.1707         25.8970         25.5804         25.2016         24.7161         23.8794    
  18      28.4474         28.4415         28.4296         28.4117         28.3877         28.3576         28.3212         28.2784         28.2290         28.1729    
          28.1098         28.0395         27.9615         27.8756         27.7812         27.6779         27.5649         27.4416         27.3071         27.1600    
          26.9991         26.8226         26.6280         26.4122         26.1707         25.8970         25.5804         25.2016         24.7161         23.8794    
  19      28.4474         28.4415         28.4296         28.4117         28.3877         28.3576         28.3212         28.2784         28.2290         28.1729    
          28.1098         28.0395         27.9615         27.8756         27.7812         27.6779         27.5649         27.4416         27.3071         27.1600    
          26.9991         26.8226         26.6280         26.4122         26.1707         25.8970         25.5804         25.2016         24.7161         23.8794    
  20      28.4474         28.4415         28.4296         28.4117         28.3877         28.3576         28.3212         28.2784         28.2290         28.1729    
          28.1098         28.0395         27.9615         27.8756         27.7812         27.6779         27.5649         27.4416         27.3071         27.1600    
          26.9991         26.8226         26.6280         26.4122         26.1707         25.8970         25.5804         25.2016         24.7161         23.8794    
  21      28.4474         28.4415         28.4296         28.4117         28.3877         28.3576         28.3212         28.2784         28.2290         28.1729    
          28.1098         28.0395         27.9615         27.8756         27.7812         27.6779         27.5649         27.4416         27.3071         27.1600    
          26.9991         26.8226         26.6280         26.4122         26.1707         25.8970         25.5804         25.2016         24.7161         23.8794    
  22      28.4474         28.4415         28.4296         28.4117         28.3877         28.3576         28.3212         28.2784         28.2290         28.1729    
          28.1098         28.0395         27.9615         27.8756         27.7812         27.6779         27.5649         27.4416         27.3071         27.1600    
          26.9991         26.8226         26.6280         26.4122         26.1707         25.8970         25.5804         25.2016         24.7161         23.8794    
  23      28.4474         28.4415         28.4296         28.4117         28.3877         28.3576         28.3212         28.2784         28.2290         28.1729    
          28.1098         28.0395         27.9615         27.8756         27.7812         27.6779         27.5649         27.4416         27.3071         27.1600    
          26.9991         26.8226         26.6280         26.4122         26.1707         25.8970         25.5804         25.2015         24.7161         23.8794    
  24      28.4474         28.4415         28.4296         28.4117         28.3877         28.3576         28.3212         28.2784         28.2290         28.1729    
          28.1098         28.0395         27.9615         27.8756         27.7812         27.6779         27.5649         27.4416         27.3071         27.1600    
          26.9991         26.8226         26.6280         26.4122         26.1707         25.8970         25.5804         25.2015         24.7161         23.8794    
  25      28.4474         28.4415         28.4296         28.4117         28.3877         28.3576         28.3212         28.2784         28.2290         28.1729    
          28.1098         28.0395         27.9615         27.8756         27.7812         27.6779         27.5649         27.4416         27.3071         27.1600    
          26.9991         26.8226         26.6280         26.4122         26.1707         25.8970         25.5804         25.2015         24.7161         23.8794    
  26      28.4474         28.4415         28.4296         28.4117         28.3877         28.3576         28.3212         28.2784         28.2290         28.1729    
          28.1098         28.0395         27.9615         27.8756         27.7812         27.6779         27.5649         27.4416         27.3071         27.1600    
          26.9991         26.8226         26.6280         26.4122         26.1707         25.8970         25.5804         25.2015         24.7161         23.8794    
  27      28.4474         28.4415         28.4296         28.4117         28.3877         28.3576         28.3212         28.2784         28.2290         28.1729    
          28.1098         28.0395         27.9615         27.8756         27.7812         27.6779         27.5649         27.4416         27.3071         27.1600    
          26.9991         26.8226         26.6280         26.4122         26.1707         25.8970         25.5804         25.2015         24.7161         23.8794    
  28      28.4474         28.4415         28.4296         28.4117         28.3877         28.3576         28.3212         28.2784         28.2290         28.1729    
          28.1098         28.0395         27.9615         27.8756         27.7812         27.6779         27.5649         27.4416         27.3071         27.1600    
          26.9991         26.8226         26.6280         26.4122         26.1707         25.8970         25.5804         25.2015         24.7161         23.8794    
  29      28.4474         28.4415         28.4296         28.4117         28.3877         28.3576         28.3212         28.2784         28.2290         28.1729    
          28.1098         28.0395         27.9615         27.8756         27.7812         27.6779         27.5649         27.4416         27.3071         27.1600    
          26.9991         26.8226         26.6280         26.4122         26.1707         25.8970         25.5804         25.2015         24.7161         23.8794    
  30      28.4474         28.4415         28.4296         28.4117         28.3877         28.3576         28.3212         28.2784         28.2290         28.1729    
          28.1098         28.0395         27.9615         27.8756         27.7812         27.6779         27.5649         27.4416         27.3071         27.1600    
          26.9991         26.8226         26.6280         26.4122         26.1707         25.8970         25.5804         25.2015         24.7161         23.8794    

 HEAD WILL BE SAVED ON UNIT 1019 AT END OF TIME STEP   10, STRESS PERIOD    2


  VOLUME BUDGET FOR ENTIRE MODEL AT END OF TIME STEP   10, STRESS PERIOD   2
  ---------------------------------------------------------------------------------------------------

     CUMULATIVE VOLUME      L**3       RATES FOR THIS TIME STEP      L**3/T          PACKAGE NAME    
     ------------------                 ------------------------                     ----------------

           IN:                                      IN:
           ---                                      ---
              STO-SS =       3.4708E-02                STO-SS =           0.0000     STORAGE         
              STO-SY =          26.0332                STO-SY =           0.0000     STORAGE         
                 RCH =        8819.1752                   RCH =         286.0273     RCHA            
                 CHD =           0.0000                   CHD =           0.0000     CHD             

            TOTAL IN =        8845.2431              TOTAL IN =         286.0273

          OUT:                                     OUT:
          ----                                     ----
              STO-SS =           1.7694                STO-SS =       5.4711E-02     STORAGE         
              STO-SY =        1092.0624                STO-SY =          33.7701     STORAGE         
                 RCH =           0.0000                   RCH =           0.0000     RCHA            
                 CHD =        7751.6379                   CHD =         252.2084     CHD             

           TOTAL OUT =        8845.4697             TOTAL OUT =         286.0332

            IN - OUT =          -0.2266              IN - OUT =      -5.9086E-03

 PERCENT DISCREPANCY =          -0.00     PERCENT DISCREPANCY =          -0.00




         TIME SUMMARY AT END OF TIME STEP   10 IN STRESS PERIOD    2
                    SECONDS     MINUTES      HOURS       DAYS        YEARS
                    -----------------------------------------------------------
   TIME STEP LENGTH 2.59200E+05  4320.0      72.000      3.0000     8.21355E-03
 STRESS PERIOD TIME 2.59200E+06  43200.      720.00      30.000     8.21355E-02
         TOTAL TIME 2.67840E+06  44640.      744.00      31.000     8.48734E-02

 OUTPUT CONTROL FOR STRESS PERIOD 3 IS REPEATED USING SETTINGS FROM A PREVIOUS STRESS PERIOD.


 STRESS PERIOD 3 IS TRANSIENT


                 RECHARGE =  0.2465750E-02
 UBDSV1 SAVING           STO-SS ON UNIT   1018 AT TIME STEP      1, STRESS PERIOD      3
 UBDSV1 SAVING           STO-SY ON UNIT   1018 AT TIME STEP      1, STRESS PERIOD      3
 UBDSV1 SAVING     FLOW-JA-FACE ON UNIT   1018 AT TIME STEP      1, STRESS PERIOD      3
 UBDSV06 SAVING              RCH IN MODEL TEST_TRANS       PACKAGE TEST_TRANS      CONNECTED TO MODEL TEST_TRANS       PACKAGE RCHA             ON UNIT   1018 AT TIME STEP      1, STRESS PERIOD      3
 UBDSV06 SAVING              CHD IN MODEL TEST_TRANS       PACKAGE TEST_TRANS      CONNECTED TO MODEL TEST_TRANS       PACKAGE CHD              ON UNIT   1018 AT TIME STEP      1, STRESS PERIOD      3
1
  HEAD IN LAYER   1 AT END OF TIME STEP   1 IN STRESS PERIOD    3
  ---------------------------------------------------------------------------

                1               2               3               4               5               6               7               8               9              10
               11              12              13              14              15              16              17              18              19              20
               21              22              23              24              25              26              27              28              29              30
 ................................................................................................................................................................
   1      28.4425         28.4365         28.4246         28.4067         28.3827         28.3525         28.3161         28.2733         28.2238         28.1677    
          28.1045         28.0340         27.9560         27.8699         27.7754         27.6719         27.5588         27.4353         27.3006         27.1533    
          26.9922         26.8155         26.6207         26.4046         26.1630         25.8892         25.5727         25.1943         24.7105         23.8851    
   2      28.4425         28.4365         28.4246         28.4067         28.3827         28.3525         28.3161         28.2733         28.2238         28.1677    
          28.1045         28.0340         27.9560         27.8699         27.7754         27.6719         27.5588         27.4353         27.3006         27.1533    
          26.9922         26.8155         26.6207         26.4046         26.1630         25.8892         25.5727         25.1944         24.7105         23.8851    
   3      28.4425         28.4365         28.4246         28.4067         28.3827         28.3525         28.3161         28.2733         28.2238         28.1677    
          28.1045         28.0340         27.9560         27.8699         27.7754         27.6719         27.5588         27.4353         27.3006         27.1533    
          26.9922         26.8155         26.6207         26.4046         26.1630         25.8892         25.5727         25.1944         24.7105         23.8851    
   4      28.4425         28.4365         28.4246         28.4067         28.3827         28.3525         28.3161         28.2733         28.2238         28.1677    
          28.1045         28.0340         27.9560         27.8699         27.7754         27.6719         27.5588         27.4353         27.3006         27.1533    
          26.9922         26.8155         26.6207         26.4046         26.1630         25.8892         25.5727         25.1944         24.7105         23.8851    
   5      28.4425         28.4365         28.4246         28.4067         28.3827         28.3525         28.3161         28.2733         28.2238         28.1677    
          28.1045         28.0340         27.9560         27.8699         27.7754         27.6719         27.5588         27.4353         27.3006         27.1533    
          26.9922         26.8155         26.6207         26.4046         26.1630         25.8892         25.5727         25.1944         24.7105         23.8851    
   6      28.4425         28.4365         28.4246         28.4067         28.3827         28.3525         28.3161         28.2733         28.2238         28.1677    
          28.1045         28.0340         27.9560         27.8699         27.7754         27.6719         27.5588         27.4353         27.3006         27.1533    
          26.9922         26.8155         26.6207         26.4046         26.1630         25.8892         25.5727         25.1944         24.7105         23.8851    
   7      28.4425         28.4365         28.4246         28.4067         28.3827         28.3525         28.3161         28.2733         28.2238         28.1677    
          28.1045         28.0340         27.9560         27.8699         27.7754         27.6719         27.5588         27.4353         27.3006         27.1533    
          26.9922         26.8155         26.6207         26.4046         26.1630         25.8892         25.5727         25.1944         24.7105         23.8851    
   8      28.4425         28.4365         28.4246         28.4067         28.3827         28.3525         28.3161         28.2733         28.2238         28.1677    
          28.1045         28.0340         27.9560         27.8699         27.7754         27.6719         27.5588         27.4353         27.3006         27.1533    
          26.9922         26.8155         26.6207         26.4046         26.1630         25.8892         25.5727         25.1944         24.7105         23.8851    
   9      28.4425         28.4365         28.4246         28.4067         28.3827         28.3525         28.3161         28.2733         28.2238         28.1677    
          28.1045         28.0340         27.9560         27.8699         27.7754         27.6719         27.5588         27.4353         27.3006         27.1533    
          26.9922         26.8155         26.6207         26.4046         26.1630         25.8892         25.5727         25.1944         24.7105         23.8851    
  10      28.4425         28.4365         28.4246         28.4067         28.3827         28.3525         28.3161         28.2733         28.2238         28.1677    
          28.1045         28.0340         27.9559         27.8699         27.7754         27.6719         27.5588         27.4353         27.3006         27.1533    
          26.9922         26.8155         26.6206         26.4046         26.1630         25.8892         25.5727         25.1944         24.7105         23.8851    
  11      28.4425         28.4365         28.4246         28.4067         28.3827         28.3525         28.3161         28.2733         28.2238         28.1677    
          28.1045         28.0340         27.9559         27.8699         27.7754         27.6719         27.5588         27.4353         27.3006         27.1533    
          26.9922         26.8155         26.6206         26.4046         26.1630         25.8892         25.5727         25.1944         24.7105         23.8851    
  12      28.4425         28.4365         28.4246         28.4067         28.3827         28.3525         28.3161         28.2733         28.2238         28.1677    
          28.1045         28.0340         27.9559         27.8699         27.7754         27.6719         27.5588         27.4353         27.3006         27.1533    
          26.9922         26.8155         26.6206         26.4046         26.1630         25.8892         25.5727         25.1944         24.7105         23.8851    
  13      28.4425         28.4365         28.4246         28.4067         28.3827         28.3525         28.3161         28.2733         28.2238         28.1677    
          28.1045         28.0340         27.9559         27.8699         27.7754         27.6719         27.5588         27.4353         27.3006         27.1533    
          26.9922         26.8155         26.6206         26.4046         26.1630         25.8892         25.5727         25.1943         24.7105         23.8851    
  14      28.4425         28.4365         28.4246         28.4067         28.3827         28.3525         28.3161         28.2733         28.2238         28.1677    
          28.1045         28.0340         27.9559         27.8699         27.7754         27.6719         27.5588         27.4353         27.3006         27.1533    
          26.9922         26.8155         26.6206         26.4046         26.1630         25.8892         25.5727         25.1943         24.7105         23.8851    
  15      28.4425         28.4365         28.4246         28.4067         28.3827         28.3525         28.3161         28.2733         28.2238         28.1677    
          28.1045         28.0340         27.9559         27.8699         27.7754         27.6719         27.5588         27.4353         27.3006         27.1533    
          26.9922         26.8155         26.6206         26.4046         26.1630         25.8892         25.5727         25.1943         24.7105         23.8851    
  16      28.4425         28.4365         28.4246         28.4067         28.3827         28.3525         28.3161         28.2733         28.2238         28.1677    
          28.1045         28.0340         27.9559         27.8699         27.7754         27.6719         27.5588         27.4353         27.3006         27.1533    
          26.9922         26.8155         26.6206         26.4046         26.1630         25.8892         25.5727         25.1943         24.7105         23.8851    
  17      28.4425         28.4365         28.4246         28.4067         28.3827         28.3525         28.3161         28.2733         28.2238         28.1677    
          28.1045         28.0340         27.9559         27.8699         27.7754         27.6719         27.5588         27.4353         27.3006         27.1533    
          26.9922         26.8155         26.6206         26.4046         26.1630         25.8892         25.5727         25.1943         24.7105         23.8851    
  18      28.4425         28.4365         28.4246         28.4067         28.3827         28.3525         28.3161         28.2733         28.2238         28.1677    
          28.1045         28.0340         27.9559         27.8699         27.7754         27.6719         27.5588         27.4353         27.3006         27.1533    
          26.9922         26.8155         26.6206         26.4046         26.1630         25.8892         25.5727         25.1943         24.7105         23.8851    
  19      28.4425         28.4365         28.4246         28.4067         28.3827         28.3525         28.3161         28.2733         28.2238         28.1677    
          28.1045         28.0340         27.9559         27.8699         27.7754         27.6719         27.5588         27.4353         27.3006         27.1533    
          26.9922         26.8155         26.6206         26.4046         26.1630         25.8892         25.5727         25.1943         24.7105         23.8851    
  20      28.4425         28.4365         28.4246         28.4067         28.3827         28.3525         28.3161         28.2733         28.2238         28.1677    
          28.1045         28.0340         27.9559         27.8699         27.7754         27.6719         27.5588         27.4353         27.3006         27.1533    
          26.9922         26.8155         26.6206         26.4046         26.1630         25.8892         25.5727         25.1943         24.7105         23.8851    
  21      28.4425         28.4365         28.4246         28.4067         28.3827         28.3525         28.3161         28.2732         28.2238         28.1677    
          28.1045         28.0340         27.9559         27.8699         27.7754         27.6719         27.5588         27.4353         27.3006         27.1533    
          26.9922         26.8155         26.6206         26.4046         26.1630         25.8892         25.5727         25.1943         24.7105         23.8851    
  22      28.4425         28.4365         28.4246         28.4067         28.3827         28.3525         28.3161         28.2732         28.2238         28.1677    
          28.1045         28.0340         27.9559         27.8699         27.7754         27.6719         27.5588         27.4353         27.3006         27.1533    
          26.9922         26.8155         26.6206         26.4046         26.1630         25.8892         25.5727         25.1943         24.7105         23.8851    
  23      28.4425         28.4365         28.4246         28.4067         28.3827         28.3525         28.3161         28.2732         28.2238         28.1677    
          28.1045         28.0340         27.9559         27.8699         27.7754         27.6719         27.5588         27.4353         27.3006         27.1533    
          26.9922         26.8155         26.6206         26.4046         26.1630         25.8892         25.5727         25.1943         24.7105         23.8851    
  24      28.4425         28.4365         28.4246         28.4067         28.3827         28.3525         28.3161         28.2732         28.2238         28.1677    
          28.1045         28.0340         27.9559         27.8699         27.7754         27.6719         27.5588         27.4353         27.3006         27.1533    
          26.9922         26.8155         26.6206         26.4046         26.1630         25.8892         25.5727         25.1943         24.7105         23.8851    
  25      28.4425         28.4365         28.4246         28.4067         28.3827         28.3525         28.3161         28.2732         28.2238         28.1677    
          28.1045         28.0340         27.9559         27.8699         27.7754         27.6719         27.5588         27.4353         27.3006         27.1533    
          26.9922         26.8155         26.6206         26.4046         26.1630         25.8892         25.5726         25.1943         24.7105         23.8851    
  26      28.4425         28.4365         28.4246         28.4067         28.3827         28.3525         28.3161         28.2732         28.2238         28.1677    
          28.1045         28.0340         27.9559         27.8699         27.7754         27.6719         27.5588         27.4353         27.3006         27.1533    
          26.9922         26.8155         26.6206         26.4046         26.1630         25.8892         25.5726         25.1943         24.7105         23.8851    
  27      28.4425         28.4365         28.4246         28.4067         28.3827         28.3525         28.3161         28.2732         28.2238         28.1677    
          28.1045         28.0340         27.9559         27.8699         27.7754         27.6719         27.5588         27.4353         27.3006         27.1533    
          26.9922         26.8155         26.6206         26.4046         26.1630         25.8892         25.5726         25.1943         24.7105         23.8851    
  28      28.4425         28.4365         28.4246         28.4067         28.3827         28.3525         28.3161         28.2732         28.2238         28.1677    
          28.1045         28.0340         27.9559         27.8699         27.7754         27.6719         27.5588         27.4353         27.3006         27.1533    
          26.9922         26.8155         26.6206         26.4046         26.1630         25.8892         25.5726         25.1943         24.7105         23.8851    
  29      28.4425         28.4365         28.4246         28.4067         28.3827         28.3525         28.3161         28.2732         28.2238         28.1677    
          28.1045         28.0340         27.9559         27.8699         27.7754         27.6719         27.5588         27.4353         27.3006         27.1533    
          26.9922         26.8155         26.6206         26.4046         26.1630         25.8892         25.5726         25.1943         24.7105         23.8851    
  30      28.4425         28.4365         28.4246         28.4067         28.3827         28.3525         28.3161         28.2732         28.2238         28.1677    
          28.1045         28.0340         27.9559         27.8699         27.7754         27.6719         27.5588         27.4353         27.3006         27.1533    
          26.9922         26.8155         26.6206         26.4046         26.1630         25.8892         25.5726         25.1943         24.7105         23.8851    

 HEAD WILL BE SAVED ON UNIT 1019 AT END OF TIME STEP    1, STRESS PERIOD    3



         TIME SUMMARY AT END OF TIME STEP    1 IN STRESS PERIOD    3
                    SECONDS     MINUTES      HOURS       DAYS        YEARS
                    -----------------------------------------------------------
   TIME STEP LENGTH 2.59200E+05  4320.0      72.000      3.0000     8.21355E-03
 STRESS PERIOD TIME 2.59200E+05  4320.0      72.000      3.0000     8.21355E-03
         TOTAL TIME 2.93760E+06  48960.      816.00      34.000     9.30869E-02
 UBDSV1 SAVING           STO-SS ON UNIT   1018 AT TIME STEP      2, STRESS PERIOD      3
 UBDSV1 SAVING           STO-SY ON UNIT   1018 AT TIME STEP      2, STRESS PERIOD      3
 UBDSV1 SAVING     FLOW-JA-FACE ON UNIT   1018 AT TIME STEP      2, STRESS PERIOD      3
 UBDSV06 SAVING              RCH IN MODEL TEST_TRANS       PACKAGE TEST_TRANS      CONNECTED TO MODEL TEST_TRANS       PACKAGE RCHA             ON UNIT   1018 AT TIME STEP      2, STRESS PERIOD      3
 UBDSV06 SAVING              CHD IN MODEL TEST_TRANS       PACKAGE TEST_TRANS      CONNECTED TO MODEL TEST_TRANS       PACKAGE CHD              ON UNIT   1018 AT TIME STEP      2, STRESS PERIOD      3

 HEAD WILL BE SAVED ON UNIT 1019 AT END OF TIME STEP    2, STRESS PERIOD    3
 UBDSV1 SAVING           STO-SS ON UNIT   1018 AT TIME STEP      3, STRESS PERIOD      3
 UBDSV1 SAVING           STO-SY ON UNIT   1018 AT TIME STEP      3, STRESS PERIOD      3
 UBDSV1 SAVING     FLOW-JA-FACE ON UNIT   1018 AT TIME STEP      3, STRESS PERIOD      3
 UBDSV06 SAVING              RCH IN MODEL TEST_TRANS       PACKAGE TEST_TRANS      CONNECTED TO MODEL TEST_TRANS       PACKAGE RCHA             ON UNIT   1018 AT TIME STEP      3, STRESS PERIOD      3
 UBDSV06 SAVING              CHD IN MODEL TEST_TRANS       PACKAGE TEST_TRANS      CONNECTED TO MODEL TEST_TRANS       PACKAGE CHD              ON UNIT   1018 AT TIME STEP      3, STRESS PERIOD      3

 HEAD WILL BE SAVED ON UNIT 1019 AT END OF TIME STEP    3, STRESS PERIOD    3
 UBDSV1 SAVING           STO-SS ON UNIT   1018 AT TIME STEP      4, STRESS PERIOD      3
 UBDSV1 SAVING           STO-SY ON UNIT   1018 AT TIME STEP      4, STRESS PERIOD      3
 UBDSV1 SAVING     FLOW-JA-FACE ON UNIT   1018 AT TIME STEP      4, STRESS PERIOD      3
 UBDSV06 SAVING              RCH IN MODEL TEST_TRANS       PACKAGE TEST_TRANS      CONNECTED TO MODEL TEST_TRANS       PACKAGE RCHA             ON UNIT   1018 AT TIME STEP      4, STRESS PERIOD      3
 UBDSV06 SAVING              CHD IN MODEL TEST_TRANS       PACKAGE TEST_TRANS      CONNECTED TO MODEL TEST_TRANS       PACKAGE CHD              ON UNIT   1018 AT TIME STEP      4, STRESS PERIOD      3

 HEAD WILL BE SAVED ON UNIT 1019 AT END OF TIME STEP    4, STRESS PERIOD    3
 UBDSV1 SAVING           STO-SS ON UNIT   1018 AT TIME STEP      5, STRESS PERIOD      3
 UBDSV1 SAVING           STO-SY ON UNIT   1018 AT TIME STEP      5, STRESS PERIOD      3
 UBDSV1 SAVING     FLOW-JA-FACE ON UNIT   1018 AT TIME STEP      5, STRESS PERIOD      3
 UBDSV06 SAVING              RCH IN MODEL TEST_TRANS       PACKAGE TEST_TRANS      CONNECTED TO MODEL TEST_TRANS       PACKAGE RCHA             ON UNIT   1018 AT TIME STEP      5, STRESS PERIOD      3
 UBDSV06 SAVING              CHD IN MODEL TEST_TRANS       PACKAGE TEST_TRANS      CONNECTED TO MODEL TEST_TRANS       PACKAGE CHD              ON UNIT   1018 AT TIME STEP      5, STRESS PERIOD      3

 HEAD WILL BE SAVED ON UNIT 1019 AT END OF TIME STEP    5, STRESS PERIOD    3
 UBDSV1 SAVING           STO-SS ON UNIT   1018 AT TIME STEP      6, STRESS PERIOD      3
 UBDSV1 SAVING           STO-SY ON UNIT   1018 AT TIME STEP      6, STRESS PERIOD      3
 UBDSV1 SAVING     FLOW-JA-FACE ON UNIT   1018 AT TIME STEP      6, STRESS PERIOD      3
 UBDSV06 SAVING              RCH IN MODEL TEST_TRANS       PACKAGE TEST_TRANS      CONNECTED TO MODEL TEST_TRANS       PACKAGE RCHA             ON UNIT   1018 AT TIME STEP      6, STRESS PERIOD      3
 UBDSV06 SAVING              CHD IN MODEL TEST_TRANS       PACKAGE TEST_TRANS      CONNECTED TO MODEL TEST_TRANS       PACKAGE CHD              ON UNIT   1018 AT TIME STEP      6, STRESS PERIOD      3

 HEAD WILL BE SAVED ON UNIT 1019 AT END OF TIME STEP    6, STRESS PERIOD    3
 UBDSV1 SAVING           STO-SS ON UNIT   1018 AT TIME STEP      7, STRESS PERIOD      3
 UBDSV1 SAVING           STO-SY ON UNIT   1018 AT TIME STEP      7, STRESS PERIOD      3
 UBDSV1 SAVING     FLOW-JA-FACE ON UNIT   1018 AT TIME STEP      7, STRESS PERIOD      3
 UBDSV06 SAVING              RCH IN MODEL TEST_TRANS       PACKAGE TEST_TRANS      CONNECTED TO MODEL TEST_TRANS       PACKAGE RCHA             ON UNIT   1018 AT TIME STEP      7, STRESS PERIOD      3
 UBDSV06 SAVING              CHD IN MODEL TEST_TRANS       PACKAGE TEST_TRANS      CONNECTED TO MODEL TEST_TRANS       PACKAGE CHD              ON UNIT   1018 AT TIME STEP      7, STRESS PERIOD      3

 HEAD WILL BE SAVED ON UNIT 1019 AT END OF TIME STEP    7, STRESS PERIOD    3
 UBDSV1 SAVING           STO-SS ON UNIT   1018 AT TIME STEP      8, STRESS PERIOD      3
 UBDSV1 SAVING           STO-SY ON UNIT   1018 AT TIME STEP      8, STRESS PERIOD      3
 UBDSV1 SAVING     FLOW-JA-FACE ON UNIT   1018 AT TIME STEP      8, STRESS PERIOD      3
 UBDSV06 SAVING              RCH IN MODEL TEST_TRANS       PACKAGE TEST_TRANS      CONNECTED TO MODEL TEST_TRANS       PACKAGE RCHA             ON UNIT   1018 AT TIME STEP      8, STRESS PERIOD      3
 UBDSV06 SAVING              CHD IN MODEL TEST_TRANS       PACKAGE TEST_TRANS      CONNECTED TO MODEL TEST_TRANS       PACKAGE CHD              ON UNIT   1018 AT TIME STEP      8, STRESS PERIOD      3

 HEAD WILL BE SAVED ON UNIT 1019 AT END OF TIME STEP    8, STRESS PERIOD    3
 UBDSV1 SAVING           STO-SS ON UNIT   1018 AT TIME STEP      9, STRESS PERIOD      3
 UBDSV1 SAVING           STO-SY ON UNIT   1018 AT TIME STEP      9, STRESS PERIOD      3
 UBDSV1 SAVING     FLOW-JA-FACE ON UNIT   1018 AT TIME STEP      9, STRESS PERIOD      3
 UBDSV06 SAVING              RCH IN MODEL TEST_TRANS       PACKAGE TEST_TRANS      CONNECTED TO MODEL TEST_TRANS       PACKAGE RCHA             ON UNIT   1018 AT TIME STEP      9, STRESS PERIOD      3
 UBDSV06 SAVING              CHD IN MODEL TEST_TRANS       PACKAGE TEST_TRANS      CONNECTED TO MODEL TEST_TRANS       PACKAGE CHD              ON UNIT   1018 AT TIME STEP      9, STRESS PERIOD      3

 HEAD WILL BE SAVED ON UNIT 1019 AT END OF TIME STEP    9, STRESS PERIOD    3
 UBDSV1 SAVING           STO-SS ON UNIT   1018 AT TIME STEP     10, STRESS PERIOD      3
 UBDSV1 SAVING           STO-SY ON UNIT   1018 AT TIME STEP     10, STRESS PERIOD      3
 UBDSV1 SAVING     FLOW-JA-FACE ON UNIT   1018 AT TIME STEP     10, STRESS PERIOD      3
 UBDSV06 SAVING              RCH IN MODEL TEST_TRANS       PACKAGE TEST_TRANS      CONNECTED TO MODEL TEST_TRANS       PACKAGE RCHA             ON UNIT   1018 AT TIME STEP     10, STRESS PERIOD      3
 UBDSV06 SAVING              CHD IN MODEL TEST_TRANS       PACKAGE TEST_TRANS      CONNECTED TO MODEL TEST_TRANS       PACKAGE CHD              ON UNIT   1018 AT TIME STEP     10, STRESS PERIOD      3
1
  HEAD IN LAYER   1 AT END OF TIME STEP  10 IN STRESS PERIOD    3
  ---------------------------------------------------------------------------

                1               2               3               4               5               6               7               8               9              10
               11              12              13              14              15              16              17              18              19              20
               21              22              23              24              25              26              27              28              29              30
 ................................................................................................................................................................
   1      28.3979         28.3919         28.3799         28.3618         28.3376         28.3072         28.2705         28.2274         28.1776         28.1211    
          28.0575         27.9866         27.9080         27.8215         27.7265         27.6226         27.5091         27.3853         27.2503         27.1030    
          26.9420         26.7656         26.5715         26.3567         26.1169         25.8458         25.5332         25.1606         24.6857         23.8851    
   2      28.3979         28.3919         28.3799         28.3618         28.3376         28.3072         28.2705         28.2274         28.1776         28.1211    
          28.0575         27.9866         27.9080         27.8215         27.7265         27.6226         27.5091         27.3853         27.2503         27.1030    
          26.9420         26.7656         26.5715         26.3567         26.1169         25.8458         25.5332         25.1606         24.6857         23.8851    
   3      28.3979         28.3919         28.3799         28.3618         28.3376         28.3072         28.2705         28.2274         28.1776         28.1211    
          28.0575         27.9866         27.9080         27.8215         27.7265         27.6226         27.5091         27.3853         27.2503         27.1030    
          26.9420         26.7656         26.5715         26.3567         26.1169         25.8458         25.5332         25.1606         24.6857         23.8851    
   4      28.3979         28.3919         28.3799         28.3618         28.3376         28.3072         28.2705         28.2274         28.1776         28.1211    
          28.0575         27.9866         27.9080         27.8215         27.7265         27.6226         27.5091         27.3853         27.2503         27.1030    
          26.9420         26.7656         26.5715         26.3567         26.1169         25.8458         25.5332         25.1606         24.6857         23.8851    
   5      28.3979         28.3919         28.3799         28.3618         28.3376         28.3072         28.2705         28.2274         28.1776         28.1211    
          28.0575         27.9866         27.9080         27.8215         27.7265         27.6226         27.5091         27.3853         27.2503         27.1030    
          26.9420         26.7656         26.5715         26.3567         26.1169         25.8458         25.5332         25.1606         24.6857         23.8851    
   6      28.3979         28.3919         28.3799         28.3618         28.3376         28.3072         28.2705         28.2274         28.1776         28.1211    
          28.0575         27.9866         27.9080         27.8215         27.7265         27.6226         27.5091         27.3853         27.2503         27.1030    
          26.9420         26.7656         26.5715         26.3567         26.1169         25.8458         25.5332         25.1606         24.6857         23.8851    
   7      28.3979         28.3919         28.3799         28.3618         28.3376         28.3072         28.2705         28.2274         28.1776         28.1211    
          28.0575         27.9866         27.9080         27.8215         27.7265         27.6226         27.5091         27.3853         27.2503         27.1030    
          26.9420         26.7656         26.5715         26.3567         26.1169         25.8458         25.5332         25.1606         24.6857         23.8851    
   8      28.3979         28.3919         28.3799         28.3618         28.3376         28.3072         28.2705         28.2274         28.1776         28.1211    
          28.0575         27.9866         27.9080         27.8215         27.7265         27.6226         27.5091         27.3853         27.2503         27.1030    
          26.9420         26.7656         26.5715         26.3567         26.1169         25.8458         25.5332         25.1606         24.6857         23.8851    
   9      28.3979         28.3919         28.3799         28.3618         28.3376         28.3072         28.2705         28.2274         28.1776         28.1211    
          28.0575         27.9866         27.9080         27.8215         27.7265         27.6226         27.5091         27.3853         27.2503         27.1030    
          26.9420         26.7656         26.5715         26.3567         26.1169         25.8458         25.5332         25.1606         24.6857         23.8851    
  10      28.3979         28.3919         28.3799         28.3618         28.3376         28.3072         28.2705         28.2274         28.1776         28.1211    
          28.0575         27.9866         27.9080         27.8215         27.7265         27.6226         27.5091         27.3853         27.2503         27.1030    
          26.9420         26.7656         26.5715         26.3567         26.1169         25.8458         25.5332         25.1606         24.6857         23.8851    
  11      28.3979         28.3919         28.3799         28.3618         28.3376         28.3072         28.2705         28.2274         28.1776         28.1211    
          28.0575         27.9866         27.9080         27.8215         27.7265         27.6226         27.5091         27.3853         27.2503         27.1030    
          26.9420         26.7656         26.5715         26.3567         26.1169         25.8458         25.5332         25.1606         24.6857         23.8851    
  12      28.3979         28.3919         28.3799         28.3618         28.3376         28.3072         28.2705         28.2274         28.1776         28.1211    
          28.0575         27.9866         27.9080         27.8215         27.7265         27.6226         27.5091         27.3853         27.2503         27.1030    
          26.9420         26.7656         26.5715         26.3567         26.1169         25.8458         25.5332         25.1606         24.6857         23.8851    
  13      28.3979         28.3919         28.3799         28.3618         28.3376         28.3072         28.2705         28.2274         28.1776         28.1211    
          28.0575         27.9866         27.9080         27.8215         27.7265         27.6226         27.5091         27.3853         27.2503         27.1030    
          26.9420         26.7656         26.5715         26.3567         26.1169         25.8458         25.5332         25.1606         24.6857         23.8851    
  14      28.3979         28.3919         28.3799         28.3618         28.3376         28.3072         28.2705         28.2274         28.1776         28.1211    
          28.0575         27.9866         27.9080         27.8215         27.7265         27.6226         27.5091         27.3853         27.2503         27.1030    
          26.9420         26.7656         26.5715         26.3567         26.1169         25.8458         25.5332         25.1606         24.6857         23.8851    
  15      28.3979         28.3919         28.3799         28.3618         28.3376         28.3072         28.2705         28.2274         28.1776         28.1211    
          28.0575         27.9866         27.9080         27.8215         27.7265         27.6226         27.5091         27.3853         27.2503         27.1030    
          26.9420         26.7656         26.5715         26.3567         26.1169         25.8458         25.5332         25.1606         24.6857         23.8851    
  16      28.3979         28.3919         28.3799         28.3618         28.3376         28.3072         28.2705         28.2274         28.1776         28.1211    
          28.0575         27.9866         27.9080         27.8215         27.7265         27.6226         27.5091         27.3853         27.2503         27.1030    
          26.9420         26.7656         26.5715         26.3567         26.1169         25.8458         25.5332         25.1606         24.6857         23.8851    
  17      28.3979         28.3919         28.3799         28.3618         28.3376         28.3072         28.2705         28.2274         28.1776         28.1211    
          28.0575         27.9866         27.9080         27.8215         27.7265         27.6226         27.5091         27.3853         27.2503         27.1030    
          26.9420         26.7656         26.5715         26.3567         26.1169         25.8458         25.5332         25.1606         24.6857         23.8851    
  18      28.3979         28.3919         28.3799         28.3618         28.3376         28.3072         28.2705         28.2274         28.1776         28.1211    
          28.0575         27.9866         27.9080         27.8215         27.7265         27.6226         27.5091         27.3853         27.2503         27.1030    
          26.9420         26.7656         26.5715         26.3567         26.1169         25.8458         25.5332         25.1606         24.6857         23.8851    
  19      28.3979         28.3919         28.3799         28.3618         28.3376         28.3072         28.2705         28.2274         28.1776         28.1211    
          28.0575         27.9866         27.9080         27.8215         27.7265         27.6226         27.5091         27.3853         27.2503         27.1030    
          26.9420         26.7656         26.5715         26.3567         26.1169         25.8458         25.5332         25.1606         24.6857         23.8851    
  20      28.3979         28.3919         28.3799         28.3618         28.3376         28.3072         28.2705         28.2274         28.1776         28.1211    
          28.0575         27.9866         27.9080         27.8215         27.7265         27.6226         27.5091         27.3853         27.2503         27.1030    
          26.9420         26.7656         26.5715         26.3567         26.1169         25.8458         25.5332         25.1606         24.6857         23.8851    
  21      28.3979         28.3919         28.3799         28.3618         28.3376         28.3072         28.2705         28.2274         28.1776         28.1211    
          28.0575         27.9866         27.9080         27.8215         27.7265         27.6226         27.5091         27.3853         27.2503         27.1030    
          26.9420         26.7656         26.5715         26.3567         26.1169         25.8458         25.5332         25.1606         24.6857         23.8851    
  22      28.3979         28.3919         28.3799         28.3618         28.3376         28.3072         28.2705         28.2274         28.1776         28.1211    
          28.0575         27.9866         27.9080         27.8215         27.7265         27.6226         27.5091         27.3853         27.2503         27.1030    
          26.9420         26.7656         26.5715         26.3567         26.1169         25.8458         25.5332         25.1606         24.6857         23.8851    
  23      28.3979         28.3919         28.3799         28.3618         28.3376         28.3072         28.2705         28.2274         28.1776         28.1211    
          28.0575         27.9866         27.9080         27.8215         27.7265         27.6226         27.5091         27.3853         27.2503         27.1030    
          26.9420         26.7656         26.5715         26.3567         26.1169         25.8458         25.5332         25.1606         24.6857         23.8851    
  24      28.3979         28.3919         28.3799         28.3618         28.3376         28.3072         28.2705         28.2274         28.1776         28.1211    
          28.0575         27.9866         27.9080         27.8215         27.7265         27.6226         27.5091         27.3853         27.2503         27.1030    
          26.9420         26.7656         26.5715         26.3567         26.1169         25.8458         25.5332         25.1606         24.6857         23.8851    
  25      28.3979         28.3919         28.3799         28.3618         28.3376         28.3072         28.2705         28.2274         28.1776         28.1211    
          28.0575         27.9866         27.9080         27.8215         27.7265         27.6226         27.5091         27.3853         27.2503         27.1030    
          26.9420         26.7656         26.5715         26.3567         26.1169         25.8458         25.5332         25.1606         24.6857         23.8851    
  26      28.3979         28.3919         28.3799         28.3618         28.3376         28.3072         28.2705         28.2274         28.1776         28.1211    
          28.0575         27.9866         27.9080         27.8215         27.7265         27.6226         27.5091         27.3853         27.2503         27.1030    
          26.9420         26.7656         26.5715         26.3567         26.1169         25.8458         25.5332         25.1606         24.6857         23.8851    
  27      28.3979         28.3919         28.3799         28.3618         28.3376         28.3072         28.2705         28.2274         28.1776         28.1211    
          28.0575         27.9866         27.9080         27.8215         27.7265         27.6226         27.5091         27.3853         27.2503         27.1030    
          26.9420         26.7656         26.5715         26.3567         26.1169         25.8458         25.5332         25.1606         24.6857         23.8851    
  28      28.3979         28.3919         28.3799         28.3618         28.3376         28.3072         28.2705         28.2274         28.1776         28.1211    
          28.0575         27.9866         27.9080         27.8215         27.7265         27.6226         27.5091         27.3853         27.2503         27.1030    
          26.9420         26.7656         26.5715         26.3567         26.1169         25.8458         25.5332         25.1606         24.6857         23.8851    
  29      28.3979         28.3919         28.3799         28.3618         28.3376         28.3072         28.2705         28.2274         28.1776         28.1211    
          28.0575         27.9866         27.9080         27.8215         27.7265         27.6226         27.5091         27.3853         27.2503         27.1030    
          26.9420         26.7656         26.5715         26.3567         26.1169         25.8458         25.5332         25.1606         24.6857         23.8851    
  30      28.3979         28.3919         28.3799         28.3618         28.3376         28.3072         28.2705         28.2274         28.1776         28.1211    
          28.0575         27.9866         27.9080         27.8215         27.7265         27.6226         27.5091         27.3853         27.2503         27.1030    
          26.9420         26.7656         26.5715         26.3567         26.1169         25.8458         25.5332         25.1606         24.6857         23.8851    

 HEAD WILL BE SAVED ON UNIT 1019 AT END OF TIME STEP   10, STRESS PERIOD    3


  VOLUME BUDGET FOR ENTIRE MODEL AT END OF TIME STEP   10, STRESS PERIOD   3
  ---------------------------------------------------------------------------------------------------

     CUMULATIVE VOLUME      L**3       RATES FOR THIS TIME STEP      L**3/T          PACKAGE NAME    
     ------------------                 ------------------------                     ----------------

           IN:                                      IN:
           ---                                      ---
              STO-SS =           1.4704                STO-SS =       4.2197E-02     STORAGE         
              STO-SY =         927.5513                STO-SY =          26.3287     STORAGE         
                 RCH =       15254.7827                   RCH =         214.5203     RCHA            
                 CHD =           0.0000                   CHD =           0.0000     CHD             

            TOTAL IN =       16183.8045              TOTAL IN =         240.8912

          OUT:                                     OUT:
          ----                                     ----
              STO-SS =           1.7694                STO-SS =           0.0000     STORAGE         
              STO-SY =        1092.0624                STO-SY =           0.0000     STORAGE         
                 RCH =           0.0000                   RCH =           0.0000     RCHA            
                 CHD =       15089.9613                   CHD =         240.8853     CHD             

           TOTAL OUT =       16183.7931             TOTAL OUT =         240.8853

            IN - OUT =       1.1377E-02              IN - OUT =       5.8279E-03

 PERCENT DISCREPANCY =           0.00     PERCENT DISCREPANCY =           0.00




         TIME SUMMARY AT END OF TIME STEP   10 IN STRESS PERIOD    3
                    SECONDS     MINUTES      HOURS       DAYS        YEARS
                    -----------------------------------------------------------
   TIME STEP LENGTH 2.59200E+05  4320.0      72.000      3.0000     8.21355E-03
 STRESS PERIOD TIME 2.59200E+06  43200.      720.00      30.000     8.21355E-02
         TOTAL TIME 5.27040E+06  87840.      1464.0      61.000     0.16701    

 OUTPUT CONTROL FOR STRESS PERIOD 4 IS REPEATED USING SETTINGS FROM A PREVIOUS STRESS PERIOD.


 STRESS PERIOD 4 IS TRANSIENT


                 RECHARGE =  0.1643840E-02
 UBDSV1 SAVING           STO-SS ON UNIT   1018 AT TIME STEP      1, STRESS PERIOD      4
 UBDSV1 SAVING           STO-SY ON UNIT   1018 AT TIME STEP      1, STRESS PERIOD      4
 UBDSV1 SAVING     FLOW-JA-FACE ON UNIT   1018 AT TIME STEP      1, STRESS PERIOD      4
 UBDSV06 SAVING              RCH IN MODEL TEST_TRANS       PACKAGE TEST_TRANS      CONNECTED TO MODEL TEST_TRANS       PACKAGE RCHA             ON UNIT   1018 AT TIME STEP      1, STRESS PERIOD      4
 UBDSV06 SAVING              CHD IN MODEL TEST_TRANS       PACKAGE TEST_TRANS      CONNECTED TO MODEL TEST_TRANS       PACKAGE CHD              ON UNIT   1018 AT TIME STEP      1, STRESS PERIOD      4
1
  HEAD IN LAYER   1 AT END OF TIME STEP   1 IN STRESS PERIOD    4
  ---------------------------------------------------------------------------

                1               2               3               4               5               6               7               8               9              10
               11              12              13              14              15              16              17              18              19              20
               21              22              23              24              25              26              27              28              29              30
 ................................................................................................................................................................
   1      28.3808         28.3748         28.3628         28.3447         28.3205         28.2901         28.2534         28.2103         28.1605         28.1039    
          28.0404         27.9695         27.8910         27.8045         27.7095         27.6057         27.4923         27.3687         27.2339         27.0869    
          26.9264         26.7508         26.5579         26.3451         26.1087         25.8436         25.5426         25.1947         24.7815         24.2710    
   2      28.3808         28.3748         28.3628         28.3447         28.3205         28.2901         28.2534         28.2103         28.1605         28.1039    
          28.0404         27.9695         27.8910         27.8045         27.7095         27.6057         27.4923         27.3687         27.2339         27.0869    
          26.9264         26.7508         26.5579         26.3451         26.1086         25.8436         25.5426         25.1947         24.7815         24.2710    
   3      28.3808         28.3748         28.3628         28.3447         28.3205         28.2901         28.2534         28.2103         28.1605         28.1039    
          28.0404         27.9695         27.8910         27.8045         27.7095         27.6057         27.4923         27.3687         27.2339         27.0869    
          26.9264         26.7508         26.5579         26.3451         26.1086         25.8436         25.5426         25.1947         24.7815         24.2710    
   4      28.3808         28.3748         28.3628         28.3447         28.3205         28.2901         28.2534         28.2103         28.1605         28.1039    
          28.0404         27.9695         27.8910         27.8045         27.7095         27.6057         27.4923         27.3687         27.2339         27.0869    
          26.9264         26.7508         26.5579         26.3451         26.1086         25.8436         25.5426         25.1947         24.7815         24.2710    
   5      28.3808         28.3748         28.3628         28.3447         28.3205         28.2901         28.2534         28.2103         28.1605         28.1039    
          28.0404         27.9695         27.8910         27.8045         27.7095         27.6057         27.4923         27.3687         27.2339         27.0869    
          26.9264         26.7508         26.5579         26.3451         26.1086         25.8436         25.5426         25.1947         24.7815         24.2710    
   6      28.3808         28.3748         28.3628         28.3447         28.3205         28.2901         28.2534         28.2103         28.1605         28.1039    
          28.0404         27.9695         27.8910         27.8045         27.7095         27.6057         27.4923         27.3687         27.2339         27.0869    
          26.9264         26.7508         26.5579         26.3451         26.1086         25.8436         25.5426         25.1947         24.7815         24.2710    
   7      28.3808         28.3748         28.3628         28.3447         28.3205         28.2901         28.2534         28.2103         28.1605         28.1039    
          28.0404         27.9695         27.8910         27.8045         27.7095         27.6057         27.4923         27.3687         27.2339         27.0869    
          26.9264         26.7508         26.5579         26.3451         26.1086         25.8436         25.5426         25.1947         24.7815         24.2710    
   8      28.3808         28.3748         28.3628         28.3447         28.3205         28.2901         28.2534         28.2103         28.1605         28.1039    
          28.0404         27.9695         27.8910         27.8045         27.7095         27.6057         27.4923         27.3687         27.2339         27.0869    
          26.9264         26.7508         26.5579         26.3451         26.1086         25.8436         25.5426         25.1947         24.7815         24.2710    
   9      28.3808         28.3748         28.3628         28.3447         28.3205         28.2901         28.2534         28.2103         28.1605         28.1039    
          28.0404         27.9695         27.8910         27.8045         27.7095         27.6057         27.4923         27.3687         27.2339         27.0869    
          26.9264         26.7508         26.5579         26.3451         26.1086         25.8436         25.5426         25.1947         24.7815         24.2710    
  10      28.3808         28.3748         28.3628         28.3447         28.3205         28.2901         28.2534         28.2103         28.1605         28.1039    
          28.0404         27.9695         27.8910         27.8045         27.7095         27.6057         27.4923         27.3687         27.2339         27.0869    
          26.9264         26.7508         26.5579         26.3451         26.1086         25.8436         25.5426         25.1947         24.7815         24.2710    
  11      28.3808         28.3748         28.3628         28.3447         28.3205         28.2901         28.2534         28.2103         28.1605         28.1039    
          28.0404         27.9695         27.8910         27.8045         27.7095         27.6057         27.4923         27.3687         27.2339         27.0869    
          26.9264         26.7508         26.5579         26.3451         26.1086         25.8436         25.5426         25.1947         24.7815         24.2710    
  12      28.3808         28.3748         28.3628         28.3447         28.3205         28.2901         28.2534         28.2103         28.1605         28.1039    
          28.0404         27.9695         27.8910         27.8045         27.7095         27.6057         27.4923         27.3687         27.2339         27.0869    
          26.9264         26.7508         26.5579         26.3451         26.1086         25.8436         25.5426         25.1947         24.7815         24.2710    
  13      28.3808         28.3748         28.3628         28.3447         28.3205         28.2901         28.2534         28.2103         28.1605         28.1039    
          28.0403         27.9695         27.8910         27.8045         27.7095         27.6057         27.4923         27.3687         27.2339         27.0869    
          26.9264         26.7508         26.5579         26.3451         26.1086         25.8436         25.5426         25.1947         24.7815         24.2710    
  14      28.3808         28.3748         28.3628         28.3447         28.3205         28.2901         28.2534         28.2103         28.1605         28.1039    
          28.0403         27.9695         27.8910         27.8045         27.7095         27.6057         27.4923         27.3687         27.2339         27.0869    
          26.9264         26.7508         26.5579         26.3451         26.1086         25.8436         25.5426         25.1947         24.7815         24.2710    
  15      28.3808         28.3748         28.3628         28.3447         28.3205         28.2901         28.2534         28.2103         28.1605         28.1039    
          28.0403         27.9695         27.8910         27.8045         27.7095         27.6057         27.4923         27.3687         27.2339         27.0869    
          26.9264         26.7508         26.5579         26.3451         26.1086         25.8436         25.5426         25.1947         24.7815         24.2710    
  16      28.3808         28.3748         28.3628         28.3447         28.3205         28.2901         28.2534         28.2103         28.1605         28.1039    
          28.0403         27.9695         27.8910         27.8045         27.7095         27.6057         27.4923         27.3687         27.2339         27.0869    
          26.9264         26.7508         26.5579         26.3451         26.1086         25.8436         25.5426         25.1947         24.7815         24.2710    
  17      28.3808         28.3748         28.3628         28.3447         28.3205         28.2901         28.2534         28.2103         28.1605         28.1039    
          28.0403         27.9695         27.8910         27.8045         27.7095         27.6057         27.4923         27.3687         27.2339         27.0869    
          26.9264         26.7508         26.5579         26.3451         26.1086         25.8436         25.5426         25.1947         24.7815         24.2710    
  18      28.3808         28.3748         28.3628         28.3447         28.3205         28.2901         28.2534         28.2103         28.1605         28.1039    
          28.0403         27.9695         27.8910         27.8045         27.7095         27.6057         27.4923         27.3687         27.2339         27.0869    
          26.9264         26.7508         26.5579         26.3451         26.1086         25.8436         25.5426         25.1947         24.7815         24.2710    
  19      28.3808         28.3748         28.3628         28.3447         28.3205         28.2901         28.2534         28.2103         28.1605         28.1039    
          28.0403         27.9695         27.8910         27.8045         27.7095         27.6057         27.4923         27.3687         27.2339         27.0869    
          26.9264         26.7508         26.5579         26.3451         26.1086         25.8436         25.5426         25.1947         24.7815         24.2710    
  20      28.3808         28.3748         28.3628         28.3447         28.3205         28.2901         28.2534         28.2103         28.1605         28.1039    
          28.0403         27.9695         27.8910         27.8045         27.7095         27.6057         27.4923         27.3687         27.2339         27.0869    
          26.9264         26.7508         26.5579         26.3451         26.1086         25.8436         25.5426         25.1947         24.7815         24.2710    
  21      28.3808         28.3748         28.3628         28.3447         28.3205         28.2901         28.2534         28.2103         28.1605         28.1039    
          28.0403         27.9695         27.8910         27.8045         27.7095         27.6057         27.4923         27.3687         27.2339         27.0869    
          26.9264         26.7508         26.5579         26.3451         26.1086         25.8436         25.5426         25.1947         24.7815         24.2710    
  22      28.3808         28.3748         28.3628         28.3447         28.3205         28.2901         28.2534         28.2103         28.1605         28.1039    
          28.0403         27.9695         27.8910         27.8045         27.7095         27.6057         27.4923         27.3687         27.2339         27.0869    
          26.9264         26.7508         26.5579         26.3451         26.1086         25.8436         25.5426         25.1947         24.7815         24.2710    
  23      28.3808         28.3748         28.3628         28.3447         28.3205         28.2901         28.2534         28.2103         28.1605         28.1039    
          28.0403         27.9695         27.8909         27.8045         27.7095         27.6057         27.4923         27.3687         27.2339         27.0869    
          26.9264         26.7508         26.5579         26.3451         26.1086         25.8436         25.5426         25.1947         24.7815         24.2710    
  24      28.3808         28.3748         28.3628         28.3447         28.3205         28.2901         28.2534         28.2103         28.1605         28.1039    
          28.0403         27.9695         27.8909         27.8045         27.7095         27.6057         27.4923         27.3687         27.2339         27.0869    
          26.9264         26.7508         26.5579         26.3451         26.1086         25.8436         25.5426         25.1947         24.7815         24.2710    
  25      28.3808         28.3748         28.3628         28.3447         28.3205         28.2901         28.2534         28.2103         28.1605         28.1039    
          28.0403         27.9695         27.8909         27.8045         27.7095         27.6057         27.4923         27.3687         27.2339         27.0869    
          26.9264         26.7508         26.5579         26.3451         26.1086         25.8436         25.5426         25.1947         24.7815         24.2710    
  26      28.3808         28.3748         28.3628         28.3447         28.3205         28.2901         28.2534         28.2103         28.1605         28.1039    
          28.0403         27.9695         27.8909         27.8045         27.7095         27.6057         27.4923         27.3687         27.2339         27.0869    
          26.9264         26.7508         26.5579         26.3451         26.1086         25.8436         25.5426         25.1947         24.7815         24.2710    
  27      28.3808         28.3748         28.3628         28.3447         28.3205         28.2901         28.2534         28.2103         28.1605         28.1039    
          28.0403         27.9695         27.8909         27.8045         27.7095         27.6057         27.4923         27.3687         27.2339         27.0869    
          26.9264         26.7508         26.5579         26.3451         26.1086         25.8436         25.5426         25.1947         24.7815         24.2710    
  28      28.3808         28.3748         28.3628         28.3447         28.3205         28.2901         28.2534         28.2103         28.1605         28.1039    
          28.0403         27.9695         27.8909         27.8045         27.7095         27.6057         27.4923         27.3687         27.2339         27.0869    
          26.9264         26.7508         26.5579         26.3451         26.1086         25.8436         25.5426         25.1947         24.7815         24.2710    
  29      28.3808         28.3748         28.3628         28.3447         28.3205         28.2901         28.2534         28.2103         28.1605         28.1039    
          28.0403         27.9695         27.8909         27.8045         27.7095         27.6057         27.4923         27.3687         27.2339         27.0869    
          26.9264         26.7508         26.5579         26.3451         26.1086         25.8436         25.5426         25.1947         24.7815         24.2710    
  30      28.3808         28.3748         28.3628         28.3447         28.3205         28.2901         28.2534         28.2103         28.1605         28.1039    
          28.0403         27.9695         27.8909         27.8045         27.7095         27.6057         27.4923         27.3687         27.2339         27.0869    
          26.9264         26.7508         26.5579         26.3451         26.1086         25.8436         25.5426         25.1947         24.7815         24.2710    

 HEAD WILL BE SAVED ON UNIT 1019 AT END OF TIME STEP    1, STRESS PERIOD    4



         TIME SUMMARY AT END OF TIME STEP    1 IN STRESS PERIOD    4
                    SECONDS     MINUTES      HOURS       DAYS        YEARS
                    -----------------------------------------------------------
   TIME STEP LENGTH 2.59200E+05  4320.0      72.000      3.0000     8.21355E-03
 STRESS PERIOD TIME 2.59200E+05  4320.0      72.000      3.0000     8.21355E-03
         TOTAL TIME 5.52960E+06  92160.      1536.0      64.000     0.17522    
 UBDSV1 SAVING           STO-SS ON UNIT   1018 AT TIME STEP      2, STRESS PERIOD      4
 UBDSV1 SAVING           STO-SY ON UNIT   1018 AT TIME STEP      2, STRESS PERIOD      4
 UBDSV1 SAVING     FLOW-JA-FACE ON UNIT   1018 AT TIME STEP      2, STRESS PERIOD      4
 UBDSV06 SAVING              RCH IN MODEL TEST_TRANS       PACKAGE TEST_TRANS      CONNECTED TO MODEL TEST_TRANS       PACKAGE RCHA             ON UNIT   1018 AT TIME STEP      2, STRESS PERIOD      4
 UBDSV06 SAVING              CHD IN MODEL TEST_TRANS       PACKAGE TEST_TRANS      CONNECTED TO MODEL TEST_TRANS       PACKAGE CHD              ON UNIT   1018 AT TIME STEP      2, STRESS PERIOD      4

 HEAD WILL BE SAVED ON UNIT 1019 AT END OF TIME STEP    2, STRESS PERIOD    4
 UBDSV1 SAVING           STO-SS ON UNIT   1018 AT TIME STEP      3, STRESS PERIOD      4
 UBDSV1 SAVING           STO-SY ON UNIT   1018 AT TIME STEP      3, STRESS PERIOD      4
 UBDSV1 SAVING     FLOW-JA-FACE ON UNIT   1018 AT TIME STEP      3, STRESS PERIOD      4
 UBDSV06 SAVING              RCH IN MODEL TEST_TRANS       PACKAGE TEST_TRANS      CONNECTED TO MODEL TEST_TRANS       PACKAGE RCHA             ON UNIT   1018 AT TIME STEP      3, STRESS PERIOD      4
 UBDSV06 SAVING              CHD IN MODEL TEST_TRANS       PACKAGE TEST_TRANS      CONNECTED TO MODEL TEST_TRANS       PACKAGE CHD              ON UNIT   1018 AT TIME STEP      3, STRESS PERIOD      4

 HEAD WILL BE SAVED ON UNIT 1019 AT END OF TIME STEP    3, STRESS PERIOD    4
 UBDSV1 SAVING           STO-SS ON UNIT   1018 AT TIME STEP      4, STRESS PERIOD      4
 UBDSV1 SAVING           STO-SY ON UNIT   1018 AT TIME STEP      4, STRESS PERIOD      4
 UBDSV1 SAVING     FLOW-JA-FACE ON UNIT   1018 AT TIME STEP      4, STRESS PERIOD      4
 UBDSV06 SAVING              RCH IN MODEL TEST_TRANS       PACKAGE TEST_TRANS      CONNECTED TO MODEL TEST_TRANS       PACKAGE RCHA             ON UNIT   1018 AT TIME STEP      4, STRESS PERIOD      4
 UBDSV06 SAVING              CHD IN MODEL TEST_TRANS       PACKAGE TEST_TRANS      CONNECTED TO MODEL TEST_TRANS       PACKAGE CHD              ON UNIT   1018 AT TIME STEP      4, STRESS PERIOD      4

 HEAD WILL BE SAVED ON UNIT 1019 AT END OF TIME STEP    4, STRESS PERIOD    4
 UBDSV1 SAVING           STO-SS ON UNIT   1018 AT TIME STEP      5, STRESS PERIOD      4
 UBDSV1 SAVING           STO-SY ON UNIT   1018 AT TIME STEP      5, STRESS PERIOD      4
 UBDSV1 SAVING     FLOW-JA-FACE ON UNIT   1018 AT TIME STEP      5, STRESS PERIOD      4
 UBDSV06 SAVING              RCH IN MODEL TEST_TRANS       PACKAGE TEST_TRANS      CONNECTED TO MODEL TEST_TRANS       PACKAGE RCHA             ON UNIT   1018 AT TIME STEP      5, STRESS PERIOD      4
 UBDSV06 SAVING              CHD IN MODEL TEST_TRANS       PACKAGE TEST_TRANS      CONNECTED TO MODEL TEST_TRANS       PACKAGE CHD              ON UNIT   1018 AT TIME STEP      5, STRESS PERIOD      4

 HEAD WILL BE SAVED ON UNIT 1019 AT END OF TIME STEP    5, STRESS PERIOD    4
 UBDSV1 SAVING           STO-SS ON UNIT   1018 AT TIME STEP      6, STRESS PERIOD      4
 UBDSV1 SAVING           STO-SY ON UNIT   1018 AT TIME STEP      6, STRESS PERIOD      4
 UBDSV1 SAVING     FLOW-JA-FACE ON UNIT   1018 AT TIME STEP      6, STRESS PERIOD      4
 UBDSV06 SAVING              RCH IN MODEL TEST_TRANS       PACKAGE TEST_TRANS      CONNECTED TO MODEL TEST_TRANS       PACKAGE RCHA             ON UNIT   1018 AT TIME STEP      6, STRESS PERIOD      4
 UBDSV06 SAVING              CHD IN MODEL TEST_TRANS       PACKAGE TEST_TRANS      CONNECTED TO MODEL TEST_TRANS       PACKAGE CHD              ON UNIT   1018 AT TIME STEP      6, STRESS PERIOD      4

 HEAD WILL BE SAVED ON UNIT 1019 AT END OF TIME STEP    6, STRESS PERIOD    4
 UBDSV1 SAVING           STO-SS ON UNIT   1018 AT TIME STEP      7, STRESS PERIOD      4
 UBDSV1 SAVING           STO-SY ON UNIT   1018 AT TIME STEP      7, STRESS PERIOD      4
 UBDSV1 SAVING     FLOW-JA-FACE ON UNIT   1018 AT TIME STEP      7, STRESS PERIOD      4
 UBDSV06 SAVING              RCH IN MODEL TEST_TRANS       PACKAGE TEST_TRANS      CONNECTED TO MODEL TEST_TRANS       PACKAGE RCHA             ON UNIT   1018 AT TIME STEP      7, STRESS PERIOD      4
 UBDSV06 SAVING              CHD IN MODEL TEST_TRANS       PACKAGE TEST_TRANS      CONNECTED TO MODEL TEST_TRANS       PACKAGE CHD              ON UNIT   1018 AT TIME STEP      7, STRESS PERIOD      4

 HEAD WILL BE SAVED ON UNIT 1019 AT END OF TIME STEP    7, STRESS PERIOD    4
 UBDSV1 SAVING           STO-SS ON UNIT   1018 AT TIME STEP      8, STRESS PERIOD      4
 UBDSV1 SAVING           STO-SY ON UNIT   1018 AT TIME STEP      8, STRESS PERIOD      4
 UBDSV1 SAVING     FLOW-JA-FACE ON UNIT   1018 AT TIME STEP      8, STRESS PERIOD      4
 UBDSV06 SAVING              RCH IN MODEL TEST_TRANS       PACKAGE TEST_TRANS      CONNECTED TO MODEL TEST_TRANS       PACKAGE RCHA             ON UNIT   1018 AT TIME STEP      8, STRESS PERIOD      4
 UBDSV06 SAVING              CHD IN MODEL TEST_TRANS       PACKAGE TEST_TRANS      CONNECTED TO MODEL TEST_TRANS       PACKAGE CHD              ON UNIT   1018 AT TIME STEP      8, STRESS PERIOD      4

 HEAD WILL BE SAVED ON UNIT 1019 AT END OF TIME STEP    8, STRESS PERIOD    4
 UBDSV1 SAVING           STO-SS ON UNIT   1018 AT TIME STEP      9, STRESS PERIOD      4
 UBDSV1 SAVING           STO-SY ON UNIT   1018 AT TIME STEP      9, STRESS PERIOD      4
 UBDSV1 SAVING     FLOW-JA-FACE ON UNIT   1018 AT TIME STEP      9, STRESS PERIOD      4
 UBDSV06 SAVING              RCH IN MODEL TEST_TRANS       PACKAGE TEST_TRANS      CONNECTED TO MODEL TEST_TRANS       PACKAGE RCHA             ON UNIT   1018 AT TIME STEP      9, STRESS PERIOD      4
 UBDSV06 SAVING              CHD IN MODEL TEST_TRANS       PACKAGE TEST_TRANS      CONNECTED TO MODEL TEST_TRANS       PACKAGE CHD              ON UNIT   1018 AT TIME STEP      9, STRESS PERIOD      4

 HEAD WILL BE SAVED ON UNIT 1019 AT END OF TIME STEP    9, STRESS PERIOD    4
 UBDSV1 SAVING           STO-SS ON UNIT   1018 AT TIME STEP     10, STRESS PERIOD      4
 UBDSV1 SAVING           STO-SY ON UNIT   1018 AT TIME STEP     10, STRESS PERIOD      4
 UBDSV1 SAVING     FLOW-JA-FACE ON UNIT   1018 AT TIME STEP     10, STRESS PERIOD      4
 UBDSV06 SAVING              RCH IN MODEL TEST_TRANS       PACKAGE TEST_TRANS      CONNECTED TO MODEL TEST_TRANS       PACKAGE RCHA             ON UNIT   1018 AT TIME STEP     10, STRESS PERIOD      4
 UBDSV06 SAVING              CHD IN MODEL TEST_TRANS       PACKAGE TEST_TRANS      CONNECTED TO MODEL TEST_TRANS       PACKAGE CHD              ON UNIT   1018 AT TIME STEP     10, STRESS PERIOD      4
1
  HEAD IN LAYER   1 AT END OF TIME STEP  10 IN STRESS PERIOD    4
  ---------------------------------------------------------------------------

                1               2               3               4               5               6               7               8               9              10
               11              12              13              14              15              16              17              18              19              20
               21              22              23              24              25              26              27              28              29              30
 ................................................................................................................................................................
   1      28.2345         28.2285         28.2167         28.1989         28.1750         28.1451         28.1090         28.0666         28.0177         27.9623    
          27.9000         27.8308         27.7542         27.6700         27.5779         27.4774         27.3680         27.2491         27.1200         26.9798    
          26.8273         26.6613         26.4798         26.2806         26.0603         25.8141         25.5348         25.2096         24.8132         24.2710    
   2      28.2345         28.2285         28.2167         28.1989         28.1750         28.1451         28.1090         28.0666         28.0177         27.9623    
          27.9000         27.8308         27.7542         27.6700         27.5779         27.4774         27.3680         27.2491         27.1200         26.9798    
          26.8273         26.6613         26.4798         26.2806         26.0603         25.8141         25.5348         25.2096         24.8132         24.2710    
   3      28.2345         28.2285         28.2167         28.1989         28.1750         28.1451         28.1090         28.0666         28.0177         27.9623    
          27.9000         27.8308         27.7542         27.6700         27.5779         27.4774         27.3680         27.2491         27.1200         26.9798    
          26.8273         26.6613         26.4798         26.2806         26.0603         25.8141         25.5348         25.2096         24.8132         24.2710    
   4      28.2345         28.2285         28.2167         28.1989         28.1750         28.1451         28.1090         28.0666         28.0177         27.9623    
          27.9000         27.8308         27.7542         27.6700         27.5779         27.4774         27.3680         27.2491         27.1200         26.9798    
          26.8273         26.6613         26.4798         26.2806         26.0603         25.8141         25.5348         25.2096         24.8132         24.2710    
   5      28.2345         28.2285         28.2167         28.1989         28.1750         28.1451         28.1090         28.0666         28.0177         27.9623    
          27.9000         27.8308         27.7542         27.6700         27.5779         27.4774         27.3680         27.2491         27.1200         26.9798    
          26.8273         26.6613         26.4798         26.2806         26.0603         25.8141         25.5348         25.2096         24.8132         24.2710    
   6      28.2345         28.2285         28.2167         28.1989         28.1750         28.1451         28.1090         28.0666         28.0177         27.9623    
          27.9000         27.8308         27.7542         27.6700         27.5779         27.4774         27.3680         27.2491         27.1200         26.9798    
          26.8273         26.6613         26.4798         26.2806         26.0603         25.8141         25.5348         25.2096         24.8132         24.2710    
   7      28.2345         28.2285         28.2167         28.1989         28.1750         28.1451         28.1090         28.0666         28.0177         27.9623    
          27.9000         27.8308         27.7542         27.6700         27.5779         27.4774         27.3680         27.2491         27.1200         26.9798    
          26.8273         26.6613         26.4798         26.2806         26.0603         25.8141         25.5348         25.2096         24.8132         24.2710    
   8      28.2345         28.2285         28.2167         28.1989         28.1750         28.1451         28.1090         28.0666         28.0177         27.9623    
          27.9000         27.8308         27.7542         27.6700         27.5779         27.4774         27.3680         27.2491         27.1200         26.9798    
          26.8273         26.6613         26.4798         26.2806         26.0603         25.8141         25.5348         25.2096         24.8132         24.2710    
   9      28.2345         28.2285         28.2167         28.1989         28.1750         28.1451         28.1090         28.0666         28.0177         27.9623    
          27.9000         27.8308         27.7542         27.6700         27.5779         27.4774         27.3680         27.2491         27.1200         26.9798    
          26.8273         26.6613         26.4798         26.2806         26.0603         25.8141         25.5348         25.2096         24.8132         24.2710    
  10      28.2345         28.2285         28.2167         28.1989         28.1750         28.1451         28.1090         28.0666         28.0177         27.9623    
          27.9000         27.8308         27.7542         27.6700         27.5779         27.4774         27.3680         27.2491         27.1200         26.9798    
          26.8273         26.6613         26.4798         26.2806         26.0603         25.8141         25.5348         25.2096         24.8132         24.2710    
  11      28.2345         28.2285         28.2167         28.1989         28.1750         28.1451         28.1090         28.0666         28.0177         27.9623    
          27.9000         27.8308         27.7542         27.6700         27.5779         27.4774         27.3680         27.2491         27.1200         26.9798    
          26.8273         26.6613         26.4798         26.2806         26.0603         25.8141         25.5348         25.2096         24.8132         24.2710    
  12      28.2345         28.2285         28.2167         28.1989         28.1750         28.1451         28.1090         28.0666         28.0177         27.9623    
          27.9000         27.8308         27.7542         27.6700         27.5779         27.4774         27.3680         27.2491         27.1200         26.9798    
          26.8273         26.6613         26.4798         26.2806         26.0603         25.8141         25.5348         25.2096         24.8132         24.2710    
  13      28.2345         28.2285         28.2167         28.1989         28.1750         28.1451         28.1090         28.0666         28.0177         27.9623    
          27.9000         27.8308         27.7542         27.6700         27.5779         27.4774         27.3680         27.2491         27.1200         26.9798    
          26.8273         26.6613         26.4798         26.2806         26.0603         25.8141         25.5348         25.2096         24.8132         24.2710    
  14      28.2345         28.2285         28.2167         28.1989         28.1750         28.1451         28.1090         28.0666         28.0177         27.9623    
          27.9000         27.8308         27.7542         27.6700         27.5779         27.4774         27.3680         27.2491         27.1200         26.9798    
          26.8273         26.6613         26.4798         26.2806         26.0603         25.8141         25.5348         25.2096         24.8132         24.2710    
  15      28.2345         28.2285         28.2167         28.1989         28.1750         28.1451         28.1090         28.0666         28.0177         27.9623    
          27.9000         27.8308         27.7542         27.6700         27.5779         27.4774         27.3680         27.2491         27.1200         26.9798    
          26.8273         26.6613         26.4798         26.2806         26.0603         25.8141         25.5348         25.2096         24.8132         24.2710    
  16      28.2345         28.2285         28.2167         28.1989         28.1750         28.1451         28.1090         28.0666         28.0177         27.9623    
          27.9000         27.8308         27.7542         27.6700         27.5779         27.4774         27.3680         27.2491         27.1200         26.9798    
          26.8273         26.6613         26.4798         26.2806         26.0603         25.8141         25.5348         25.2096         24.8132         24.2710    
  17      28.2345         28.2285         28.2167         28.1989         28.1750         28.1451         28.1090         28.0666         28.0177         27.9623    
          27.9000         27.8308         27.7542         27.6700         27.5779         27.4774         27.3680         27.2491         27.1200         26.9798    
          26.8273         26.6613         26.4798         26.2806         26.0603         25.8141         25.5348         25.2096         24.8132         24.2710    
  18      28.2345         28.2285         28.2167         28.1989         28.1750         28.1451         28.1090         28.0666         28.0177         27.9623    
          27.9000         27.8308         27.7542         27.6700         27.5779         27.4774         27.3680         27.2491         27.1200         26.9798    
          26.8273         26.6613         26.4798         26.2806         26.0603         25.8141         25.5348         25.2096         24.8132         24.2710    
  19      28.2345         28.2285         28.2167         28.1989         28.1750         28.1451         28.1090         28.0666         28.0177         27.9623    
          27.9000         27.8308         27.7542         27.6700         27.5779         27.4774         27.3680         27.2491         27.1200         26.9798    
          26.8273         26.6613         26.4798         26.2806         26.0603         25.8141         25.5348         25.2096         24.8132         24.2710    
  20      28.2345         28.2285         28.2167         28.1989         28.1750         28.1451         28.1090         28.0666         28.0177         27.9623    
          27.9000         27.8308         27.7542         27.6700         27.5779         27.4774         27.3680         27.2491         27.1200         26.9798    
          26.8273         26.6613         26.4798         26.2806         26.0603         25.8141         25.5348         25.2096         24.8132         24.2710    
  21      28.2345         28.2285         28.2167         28.1989         28.1750         28.1451         28.1090         28.0666         28.0177         27.9623    
          27.9000         27.8308         27.7542         27.6700         27.5779         27.4774         27.3680         27.2491         27.1200         26.9798    
          26.8273         26.6613         26.4798         26.2806         26.0603         25.8141         25.5348         25.2096         24.8132         24.2710    
  22      28.2345         28.2285         28.2167         28.1989         28.1750         28.1451         28.1090         28.0666         28.0177         27.9623    
          27.9000         27.8308         27.7542         27.6700         27.5779         27.4774         27.3680         27.2491         27.1200         26.9798    
          26.8273         26.6613         26.4798         26.2806         26.0603         25.8141         25.5348         25.2096         24.8132         24.2710    
  23      28.2345         28.2285         28.2167         28.1989         28.1750         28.1451         28.1090         28.0666         28.0177         27.9623    
          27.9000         27.8308         27.7542         27.6700         27.5779         27.4774         27.3680         27.2491         27.1200         26.9798    
          26.8273         26.6613         26.4798         26.2806         26.0603         25.8141         25.5348         25.2096         24.8132         24.2710    
  24      28.2345         28.2285         28.2167         28.1989         28.1750         28.1451         28.1090         28.0666         28.0177         27.9623    
          27.9000         27.8308         27.7542         27.6700         27.5779         27.4774         27.3680         27.2491         27.1200         26.9798    
          26.8273         26.6613         26.4798         26.2806         26.0603         25.8141         25.5348         25.2096         24.8132         24.2710    
  25      28.2345         28.2285         28.2167         28.1989         28.1750         28.1451         28.1090         28.0666         28.0177         27.9623    
          27.9000         27.8308         27.7542         27.6700         27.5779         27.4774         27.3680         27.2491         27.1200         26.9798    
          26.8273         26.6613         26.4798         26.2806         26.0603         25.8141         25.5348         25.2096         24.8132         24.2710    
  26      28.2345         28.2285         28.2167         28.1989         28.1750         28.1451         28.1090         28.0666         28.0177         27.9623    
          27.9000         27.8308         27.7542         27.6700         27.5779         27.4774         27.3680         27.2491         27.1200         26.9798    
          26.8273         26.6613         26.4798         26.2806         26.0603         25.8141         25.5348         25.2096         24.8132         24.2710    
  27      28.2345         28.2285         28.2167         28.1989         28.1750         28.1451         28.1090         28.0666         28.0177         27.9623    
          27.9000         27.8308         27.7542         27.6700         27.5779         27.4774         27.3680         27.2491         27.1200         26.9798    
          26.8273         26.6613         26.4798         26.2806         26.0603         25.8141         25.5348         25.2096         24.8132         24.2710    
  28      28.2345         28.2285         28.2167         28.1989         28.1750         28.1451         28.1090         28.0666         28.0177         27.9623    
          27.9000         27.8308         27.7542         27.6700         27.5779         27.4774         27.3680         27.2491         27.1200         26.9798    
          26.8273         26.6613         26.4798         26.2806         26.0603         25.8141         25.5348         25.2096         24.8132         24.2710    
  29      28.2345         28.2285         28.2167         28.1989         28.1750         28.1451         28.1090         28.0666         28.0177         27.9623    
          27.9000         27.8308         27.7542         27.6700         27.5779         27.4774         27.3680         27.2491         27.1200         26.9798    
          26.8273         26.6613         26.4798         26.2806         26.0603         25.8141         25.5348         25.2096         24.8132         24.2710    
  30      28.2345         28.2285         28.2167         28.1989         28.1750         28.1451         28.1090         28.0666         28.0177         27.9623    
          27.9000         27.8308         27.7542         27.6700         27.5779         27.4774         27.3680         27.2491         27.1200         26.9798    
          26.8273         26.6613         26.4798         26.2806         26.0603         25.8141         25.5348         25.2096         24.8132         24.2710    

 HEAD WILL BE SAVED ON UNIT 1019 AT END OF TIME STEP   10, STRESS PERIOD    4


  VOLUME BUDGET FOR ENTIRE MODEL AT END OF TIME STEP   10, STRESS PERIOD   4
  ---------------------------------------------------------------------------------------------------

     CUMULATIVE VOLUME      L**3       RATES FOR THIS TIME STEP      L**3/T          PACKAGE NAME    
     ------------------                 ------------------------                     ----------------

           IN:                                      IN:
           ---                                      ---
              STO-SS =           4.9528                STO-SS =           0.1076     STORAGE         
              STO-SY =        3076.9682                STO-SY =          66.9134     STORAGE         
                 RCH =       19545.2051                   RCH =         143.0141     RCHA            
                 CHD =           0.0000                   CHD =           0.0000     CHD             

            TOTAL IN =       22627.1262              TOTAL IN =         210.0351

          OUT:                                     OUT:
          ----                                     ----
              STO-SS =           1.9501                STO-SS =           0.0000     STORAGE         
              STO-SY =        1226.2203                STO-SY =           0.0000     STORAGE         
                 RCH =           0.0000                   RCH =           0.0000     RCHA            
                 CHD =       21398.7414                   CHD =         210.0280     CHD             

           TOTAL OUT =       22626.9118             TOTAL OUT =         210.0280

            IN - OUT =           0.2144              IN - OUT =       7.1079E-03

 PERCENT DISCREPANCY =           0.00     PERCENT DISCREPANCY =           0.00




         TIME SUMMARY AT END OF TIME STEP   10 IN STRESS PERIOD    4
                    SECONDS     MINUTES      HOURS       DAYS        YEARS
                    -----------------------------------------------------------
   TIME STEP LENGTH 2.59200E+05  4320.0      72.000      3.0000     8.21355E-03
 STRESS PERIOD TIME 2.59200E+06  43200.      720.00      30.000     8.21355E-02
         TOTAL TIME 7.86240E+06 1.31040E+05  2184.0      91.000     0.24914    

 OUTPUT CONTROL FOR STRESS PERIOD 5 IS REPEATED USING SETTINGS FROM A PREVIOUS STRESS PERIOD.


 STRESS PERIOD 5 IS TRANSIENT


                 RECHARGE =  0.1232880E-02
 UBDSV1 SAVING           STO-SS ON UNIT   1018 AT TIME STEP      1, STRESS PERIOD      5
 UBDSV1 SAVING           STO-SY ON UNIT   1018 AT TIME STEP      1, STRESS PERIOD      5
 UBDSV1 SAVING     FLOW-JA-FACE ON UNIT   1018 AT TIME STEP      1, STRESS PERIOD      5
 UBDSV06 SAVING              RCH IN MODEL TEST_TRANS       PACKAGE TEST_TRANS      CONNECTED TO MODEL TEST_TRANS       PACKAGE RCHA             ON UNIT   1018 AT TIME STEP      1, STRESS PERIOD      5
 UBDSV06 SAVING              CHD IN MODEL TEST_TRANS       PACKAGE TEST_TRANS      CONNECTED TO MODEL TEST_TRANS       PACKAGE CHD              ON UNIT   1018 AT TIME STEP      1, STRESS PERIOD      5
1
  HEAD IN LAYER   1 AT END OF TIME STEP   1 IN STRESS PERIOD    5
  ---------------------------------------------------------------------------

                1               2               3               4               5               6               7               8               9              10
               11              12              13              14              15              16              17              18              19              20
               21              22              23              24              25              26              27              28              29              30
 ................................................................................................................................................................
   1      28.2132         28.2073         28.1955         28.1777         28.1540         28.1241         28.0882         28.0459         27.9972         27.9420    
          27.8800         27.8110         27.7347         27.6510         27.5593         27.4593         27.3505         27.2324         27.1042         26.9652    
          26.8144         26.6508         26.4731         26.2798         26.0694         25.8409         25.5947         25.3361         25.0855         24.9067    
   2      28.2132         28.2073         28.1955         28.1777         28.1540         28.1241         28.0882         28.0459         27.9972         27.9420    
          27.8800         27.8110         27.7347         27.6510         27.5593         27.4593         27.3505         27.2324         27.1042         26.9652    
          26.8144         26.6508         26.4731         26.2798         26.0694         25.8409         25.5947         25.3361         25.0855         24.9067    
   3      28.2132         28.2073         28.1955         28.1777         28.1540         28.1241         28.0882         28.0459         27.9972         27.9420    
          27.8800         27.8110         27.7347         27.6510         27.5593         27.4593         27.3505         27.2324         27.1042         26.9652    
          26.8144         26.6508         26.4731         26.2798         26.0694         25.8409         25.5947         25.3361         25.0855         24.9067    
   4      28.2132         28.2073         28.1955         28.1777         28.1540         28.1241         28.0882         28.0459         27.9972         27.9420    
          27.8800         27.8110         27.7347         27.6510         27.5593         27.4593         27.3505         27.2324         27.1042         26.9652    
          26.8144         26.6508         26.4731         26.2798         26.0694         25.8409         25.5947         25.3361         25.0855         24.9067    
   5      28.2132         28.2073         28.1955         28.1777         28.1540         28.1241         28.0882         28.0459         27.9972         27.9420    
          27.8800         27.8110         27.7347         27.6510         27.5593         27.4593         27.3505         27.2324         27.1042         26.9652    
          26.8144         26.6508         26.4731         26.2798         26.0694         25.8409         25.5947         25.3361         25.0855         24.9067    
   6      28.2132         28.2073         28.1955         28.1777         28.1540         28.1241         28.0882         28.0459         27.9972         27.9420    
          27.8800         27.8110         27.7347         27.6510         27.5593         27.4593         27.3505         27.2324         27.1042         26.9652    
          26.8144         26.6508         26.4731         26.2798         26.0694         25.8409         25.5947         25.3361         25.0855         24.9067    
   7      28.2132         28.2073         28.1955         28.1777         28.1540         28.1241         28.0882         28.0459         27.9972         27.9420    
          27.8800         27.8110         27.7347         27.6510         27.5593         27.4593         27.3505         27.2324         27.1042         26.9652    
          26.8144         26.6508         26.4731         26.2798         26.0694         25.8409         25.5947         25.3361         25.0855         24.9067    
   8      28.2132         28.2073         28.1955         28.1777         28.1540         28.1241         28.0882         28.0459         27.9972         27.9420    
          27.8800         27.8110         27.7347         27.6510         27.5593         27.4593         27.3505         27.2324         27.1042         26.9652    
          26.8144         26.6508         26.4731         26.2798         26.0694         25.8409         25.5947         25.3361         25.0855         24.9067    
   9      28.2132         28.2073         28.1955         28.1777         28.1540         28.1241         28.0882         28.0459         27.9972         27.9420    
          27.8800         27.8110         27.7347         27.6510         27.5593         27.4593         27.3505         27.2324         27.1042         26.9652    
          26.8144         26.6508         26.4731         26.2798         26.0694         25.8409         25.5947         25.3361         25.0855         24.9067    
  10      28.2132         28.2073         28.1955         28.1777         28.1540         28.1241         28.0882         28.0459         27.9972         27.9420    
          27.8800         27.8110         27.7347         27.6510         27.5593         27.4593         27.3505         27.2324         27.1042         26.9652    
          26.8144         26.6508         26.4731         26.2798         26.0694         25.8409         25.5947         25.3361         25.0855         24.9067    
  11      28.2132         28.2073         28.1955         28.1777         28.1540         28.1241         28.0882         28.0459         27.9972         27.9420    
          27.8800         27.8110         27.7347         27.6510         27.5593         27.4593         27.3505         27.2324         27.1042         26.9652    
          26.8144         26.6508         26.4731         26.2798         26.0694         25.8409         25.5947         25.3361         25.0855         24.9067    
  12      28.2132         28.2073         28.1955         28.1777         28.1540         28.1241         28.0882         28.0459         27.9972         27.9420    
          27.8800         27.8110         27.7347         27.6510         27.5593         27.4593         27.3505         27.2324         27.1042         26.9652    
          26.8144         26.6508         26.4731         26.2798         26.0694         25.8409         25.5947         25.3361         25.0855         24.9067    
  13      28.2132         28.2073         28.1955         28.1777         28.1540         28.1241         28.0882         28.0459         27.9972         27.9420    
          27.8800         27.8110         27.7347         27.6510         27.5593         27.4593         27.3505         27.2324         27.1042         26.9652    
          26.8144         26.6508         26.4731         26.2798         26.0694         25.8409         25.5947         25.3361         25.0855         24.9067    
  14      28.2132         28.2073         28.1955         28.1777         28.1540         28.1241         28.0882         28.0459         27.9972         27.9420    
          27.8800         27.8110         27.7347         27.6510         27.5593         27.4593         27.3505         27.2324         27.1042         26.9652    
          26.8144         26.6508         26.4731         26.2798         26.0694         25.8409         25.5947         25.3361         25.0855         24.9067    
  15      28.2132         28.2073         28.1955         28.1777         28.1540         28.1241         28.0882         28.0459         27.9972         27.9420    
          27.8800         27.8110         27.7347         27.6510         27.5593         27.4593         27.3505         27.2324         27.1042         26.9652    
          26.8144         26.6508         26.4731         26.2798         26.0694         25.8409         25.5947         25.3361         25.0855         24.9067    
  16      28.2132         28.2073         28.1955         28.1777         28.1540         28.1241         28.0882         28.0459         27.9972         27.9420    
          27.8800         27.8110         27.7347         27.6510         27.5593         27.4593         27.3505         27.2324         27.1042         26.9652    
          26.8144         26.6508         26.4731         26.2798         26.0694         25.8409         25.5947         25.3361         25.0855         24.9067    
  17      28.2132         28.2073         28.1955         28.1777         28.1540         28.1241         28.0882         28.0459         27.9972         27.9420    
          27.8800         27.8110         27.7347         27.6510         27.5593         27.4593         27.3505         27.2324         27.1042         26.9652    
          26.8144         26.6508         26.4731         26.2798         26.0694         25.8409         25.5947         25.3361         25.0855         24.9067    
  18      28.2132         28.2073         28.1955         28.1777         28.1540         28.1241         28.0882         28.0459         27.9972         27.9420    
          27.8800         27.8110         27.7347         27.6510         27.5593         27.4593         27.3505         27.2324         27.1042         26.9652    
          26.8144         26.6508         26.4731         26.2798         26.0694         25.8409         25.5947         25.3361         25.0855         24.9067    
  19      28.2132         28.2073         28.1955         28.1777         28.1540         28.1241         28.0882         28.0459         27.9972         27.9420    
          27.8800         27.8110         27.7347         27.6510         27.5593         27.4593         27.3505         27.2324         27.1042         26.9652    
          26.8144         26.6508         26.4731         26.2798         26.0694         25.8409         25.5947         25.3361         25.0855         24.9067    
  20      28.2132         28.2073         28.1955         28.1777         28.1540         28.1241         28.0882         28.0459         27.9972         27.9420    
          27.8800         27.8110         27.7347         27.6510         27.5593         27.4593         27.3505         27.2324         27.1042         26.9652    
          26.8144         26.6508         26.4731         26.2798         26.0694         25.8409         25.5947         25.3361         25.0855         24.9067    
  21      28.2132         28.2073         28.1955         28.1777         28.1540         28.1241         28.0882         28.0459         27.9972         27.9420    
          27.8800         27.8110         27.7347         27.6510         27.5593         27.4593         27.3505         27.2324         27.1042         26.9652    
          26.8144         26.6508         26.4731         26.2798         26.0694         25.8409         25.5947         25.3361         25.0855         24.9067    
  22      28.2132         28.2073         28.1955         28.1777         28.1540         28.1241         28.0882         28.0459         27.9972         27.9420    
          27.8800         27.8110         27.7347         27.6510         27.5593         27.4593         27.3505         27.2324         27.1042         26.9652    
          26.8144         26.6508         26.4731         26.2798         26.0694         25.8409         25.5947         25.3361         25.0855         24.9067    
  23      28.2132         28.2073         28.1955         28.1777         28.1540         28.1241         28.0882         28.0459         27.9972         27.9420    
          27.8800         27.8110         27.7347         27.6510         27.5593         27.4593         27.3505         27.2324         27.1042         26.9652    
          26.8144         26.6508         26.4731         26.2798         26.0694         25.8409         25.5947         25.3361         25.0855         24.9067    
  24      28.2132         28.2073         28.1955         28.1777         28.1540         28.1241         28.0882         28.0459         27.9972         27.9420    
          27.8800         27.8110         27.7347         27.6510         27.5593         27.4593         27.3505         27.2324         27.1042         26.9652    
          26.8144         26.6508         26.4731         26.2798         26.0694         25.8409         25.5947         25.3361         25.0855         24.9067    
  25      28.2132         28.2073         28.1955         28.1777         28.1540         28.1241         28.0882         28.0459         27.9972         27.9420    
          27.8800         27.8110         27.7347         27.6510         27.5593         27.4593         27.3505         27.2324         27.1042         26.9652    
          26.8144         26.6508         26.4731         26.2798         26.0694         25.8409         25.5947         25.3361         25.0855         24.9067    
  26      28.2132         28.2073         28.1955         28.1777         28.1540         28.1241         28.0882         28.0459         27.9972         27.9420    
          27.8800         27.8110         27.7347         27.6510         27.5593         27.4593         27.3505         27.2324         27.1042         26.9652    
          26.8144         26.6508         26.4731         26.2798         26.0694         25.8409         25.5947         25.3361         25.0855         24.9067    
  27      28.2132         28.2073         28.1955         28.1777         28.1540         28.1241         28.0882         28.0459         27.9972         27.9420    
          27.8800         27.8110         27.7347         27.6510         27.5593         27.4593         27.3505         27.2324         27.1042         26.9652    
          26.8144         26.6508         26.4731         26.2798         26.0694         25.8409         25.5947         25.3361         25.0855         24.9067    
  28      28.2132         28.2073         28.1955         28.1777         28.1540         28.1241         28.0882         28.0459         27.9972         27.9420    
          27.8800         27.8110         27.7347         27.6510         27.5593         27.4593         27.3505         27.2324         27.1042         26.9652    
          26.8144         26.6508         26.4731         26.2798         26.0694         25.8409         25.5947         25.3361         25.0855         24.9067    
  29      28.2132         28.2073         28.1955         28.1777         28.1540         28.1241         28.0882         28.0459         27.9972         27.9420    
          27.8800         27.8110         27.7347         27.6510         27.5593         27.4593         27.3505         27.2324         27.1042         26.9652    
          26.8144         26.6508         26.4731         26.2798         26.0694         25.8409         25.5947         25.3361         25.0855         24.9067    
  30      28.2132         28.2073         28.1955         28.1777         28.1540         28.1241         28.0882         28.0459         27.9972         27.9420    
          27.8800         27.8110         27.7347         27.6510         27.5593         27.4593         27.3505         27.2324         27.1042         26.9652    
          26.8144         26.6508         26.4731         26.2798         26.0694         25.8409         25.5947         25.3361         25.0855         24.9067    

 HEAD WILL BE SAVED ON UNIT 1019 AT END OF TIME STEP    1, STRESS PERIOD    5



         TIME SUMMARY AT END OF TIME STEP    1 IN STRESS PERIOD    5
                    SECONDS     MINUTES      HOURS       DAYS        YEARS
                    -----------------------------------------------------------
   TIME STEP LENGTH 2.59200E+05  4320.0      72.000      3.0000     8.21355E-03
 STRESS PERIOD TIME 2.59200E+05  4320.0      72.000      3.0000     8.21355E-03
         TOTAL TIME 8.12160E+06 1.35360E+05  2256.0      94.000     0.25736    
 UBDSV1 SAVING           STO-SS ON UNIT   1018 AT TIME STEP      2, STRESS PERIOD      5
 UBDSV1 SAVING           STO-SY ON UNIT   1018 AT TIME STEP      2, STRESS PERIOD      5
 UBDSV1 SAVING     FLOW-JA-FACE ON UNIT   1018 AT TIME STEP      2, STRESS PERIOD      5
 UBDSV06 SAVING              RCH IN MODEL TEST_TRANS       PACKAGE TEST_TRANS      CONNECTED TO MODEL TEST_TRANS       PACKAGE RCHA             ON UNIT   1018 AT TIME STEP      2, STRESS PERIOD      5
 UBDSV06 SAVING              CHD IN MODEL TEST_TRANS       PACKAGE TEST_TRANS      CONNECTED TO MODEL TEST_TRANS       PACKAGE CHD              ON UNIT   1018 AT TIME STEP      2, STRESS PERIOD      5

 HEAD WILL BE SAVED ON UNIT 1019 AT END OF TIME STEP    2, STRESS PERIOD    5
 UBDSV1 SAVING           STO-SS ON UNIT   1018 AT TIME STEP      3, STRESS PERIOD      5
 UBDSV1 SAVING           STO-SY ON UNIT   1018 AT TIME STEP      3, STRESS PERIOD      5
 UBDSV1 SAVING     FLOW-JA-FACE ON UNIT   1018 AT TIME STEP      3, STRESS PERIOD      5
 UBDSV06 SAVING              RCH IN MODEL TEST_TRANS       PACKAGE TEST_TRANS      CONNECTED TO MODEL TEST_TRANS       PACKAGE RCHA             ON UNIT   1018 AT TIME STEP      3, STRESS PERIOD      5
 UBDSV06 SAVING              CHD IN MODEL TEST_TRANS       PACKAGE TEST_TRANS      CONNECTED TO MODEL TEST_TRANS       PACKAGE CHD              ON UNIT   1018 AT TIME STEP      3, STRESS PERIOD      5

 HEAD WILL BE SAVED ON UNIT 1019 AT END OF TIME STEP    3, STRESS PERIOD    5
 UBDSV1 SAVING           STO-SS ON UNIT   1018 AT TIME STEP      4, STRESS PERIOD      5
 UBDSV1 SAVING           STO-SY ON UNIT   1018 AT TIME STEP      4, STRESS PERIOD      5
 UBDSV1 SAVING     FLOW-JA-FACE ON UNIT   1018 AT TIME STEP      4, STRESS PERIOD      5
 UBDSV06 SAVING              RCH IN MODEL TEST_TRANS       PACKAGE TEST_TRANS      CONNECTED TO MODEL TEST_TRANS       PACKAGE RCHA             ON UNIT   1018 AT TIME STEP      4, STRESS PERIOD      5
 UBDSV06 SAVING              CHD IN MODEL TEST_TRANS       PACKAGE TEST_TRANS      CONNECTED TO MODEL TEST_TRANS       PACKAGE CHD              ON UNIT   1018 AT TIME STEP      4, STRESS PERIOD      5

 HEAD WILL BE SAVED ON UNIT 1019 AT END OF TIME STEP    4, STRESS PERIOD    5
 UBDSV1 SAVING           STO-SS ON UNIT   1018 AT TIME STEP      5, STRESS PERIOD      5
 UBDSV1 SAVING           STO-SY ON UNIT   1018 AT TIME STEP      5, STRESS PERIOD      5
 UBDSV1 SAVING     FLOW-JA-FACE ON UNIT   1018 AT TIME STEP      5, STRESS PERIOD      5
 UBDSV06 SAVING              RCH IN MODEL TEST_TRANS       PACKAGE TEST_TRANS      CONNECTED TO MODEL TEST_TRANS       PACKAGE RCHA             ON UNIT   1018 AT TIME STEP      5, STRESS PERIOD      5
 UBDSV06 SAVING              CHD IN MODEL TEST_TRANS       PACKAGE TEST_TRANS      CONNECTED TO MODEL TEST_TRANS       PACKAGE CHD              ON UNIT   1018 AT TIME STEP      5, STRESS PERIOD      5

 HEAD WILL BE SAVED ON UNIT 1019 AT END OF TIME STEP    5, STRESS PERIOD    5
 UBDSV1 SAVING           STO-SS ON UNIT   1018 AT TIME STEP      6, STRESS PERIOD      5
 UBDSV1 SAVING           STO-SY ON UNIT   1018 AT TIME STEP      6, STRESS PERIOD      5
 UBDSV1 SAVING     FLOW-JA-FACE ON UNIT   1018 AT TIME STEP      6, STRESS PERIOD      5
 UBDSV06 SAVING              RCH IN MODEL TEST_TRANS       PACKAGE TEST_TRANS      CONNECTED TO MODEL TEST_TRANS       PACKAGE RCHA             ON UNIT   1018 AT TIME STEP      6, STRESS PERIOD      5
 UBDSV06 SAVING              CHD IN MODEL TEST_TRANS       PACKAGE TEST_TRANS      CONNECTED TO MODEL TEST_TRANS       PACKAGE CHD              ON UNIT   1018 AT TIME STEP      6, STRESS PERIOD      5

 HEAD WILL BE SAVED ON UNIT 1019 AT END OF TIME STEP    6, STRESS PERIOD    5
 UBDSV1 SAVING           STO-SS ON UNIT   1018 AT TIME STEP      7, STRESS PERIOD      5
 UBDSV1 SAVING           STO-SY ON UNIT   1018 AT TIME STEP      7, STRESS PERIOD      5
 UBDSV1 SAVING     FLOW-JA-FACE ON UNIT   1018 AT TIME STEP      7, STRESS PERIOD      5
 UBDSV06 SAVING              RCH IN MODEL TEST_TRANS       PACKAGE TEST_TRANS      CONNECTED TO MODEL TEST_TRANS       PACKAGE RCHA             ON UNIT   1018 AT TIME STEP      7, STRESS PERIOD      5
 UBDSV06 SAVING              CHD IN MODEL TEST_TRANS       PACKAGE TEST_TRANS      CONNECTED TO MODEL TEST_TRANS       PACKAGE CHD              ON UNIT   1018 AT TIME STEP      7, STRESS PERIOD      5

 HEAD WILL BE SAVED ON UNIT 1019 AT END OF TIME STEP    7, STRESS PERIOD    5
 UBDSV1 SAVING           STO-SS ON UNIT   1018 AT TIME STEP      8, STRESS PERIOD      5
 UBDSV1 SAVING           STO-SY ON UNIT   1018 AT TIME STEP      8, STRESS PERIOD      5
 UBDSV1 SAVING     FLOW-JA-FACE ON UNIT   1018 AT TIME STEP      8, STRESS PERIOD      5
 UBDSV06 SAVING              RCH IN MODEL TEST_TRANS       PACKAGE TEST_TRANS      CONNECTED TO MODEL TEST_TRANS       PACKAGE RCHA             ON UNIT   1018 AT TIME STEP      8, STRESS PERIOD      5
 UBDSV06 SAVING              CHD IN MODEL TEST_TRANS       PACKAGE TEST_TRANS      CONNECTED TO MODEL TEST_TRANS       PACKAGE CHD              ON UNIT   1018 AT TIME STEP      8, STRESS PERIOD      5

 HEAD WILL BE SAVED ON UNIT 1019 AT END OF TIME STEP    8, STRESS PERIOD    5
 UBDSV1 SAVING           STO-SS ON UNIT   1018 AT TIME STEP      9, STRESS PERIOD      5
 UBDSV1 SAVING           STO-SY ON UNIT   1018 AT TIME STEP      9, STRESS PERIOD      5
 UBDSV1 SAVING     FLOW-JA-FACE ON UNIT   1018 AT TIME STEP      9, STRESS PERIOD      5
 UBDSV06 SAVING              RCH IN MODEL TEST_TRANS       PACKAGE TEST_TRANS      CONNECTED TO MODEL TEST_TRANS       PACKAGE RCHA             ON UNIT   1018 AT TIME STEP      9, STRESS PERIOD      5
 UBDSV06 SAVING              CHD IN MODEL TEST_TRANS       PACKAGE TEST_TRANS      CONNECTED TO MODEL TEST_TRANS       PACKAGE CHD              ON UNIT   1018 AT TIME STEP      9, STRESS PERIOD      5

 HEAD WILL BE SAVED ON UNIT 1019 AT END OF TIME STEP    9, STRESS PERIOD    5
 UBDSV1 SAVING           STO-SS ON UNIT   1018 AT TIME STEP     10, STRESS PERIOD      5
 UBDSV1 SAVING           STO-SY ON UNIT   1018 AT TIME STEP     10, STRESS PERIOD      5
 UBDSV1 SAVING     FLOW-JA-FACE ON UNIT   1018 AT TIME STEP     10, STRESS PERIOD      5
 UBDSV06 SAVING              RCH IN MODEL TEST_TRANS       PACKAGE TEST_TRANS      CONNECTED TO MODEL TEST_TRANS       PACKAGE RCHA             ON UNIT   1018 AT TIME STEP     10, STRESS PERIOD      5
 UBDSV06 SAVING              CHD IN MODEL TEST_TRANS       PACKAGE TEST_TRANS      CONNECTED TO MODEL TEST_TRANS       PACKAGE CHD              ON UNIT   1018 AT TIME STEP     10, STRESS PERIOD      5
1
  HEAD IN LAYER   1 AT END OF TIME STEP  10 IN STRESS PERIOD    5
  ---------------------------------------------------------------------------

                1               2               3               4               5               6               7               8               9              10
               11              12              13              14              15              16              17              18              19              20
               21              22              23              24              25              26              27              28              29              30
 ................................................................................................................................................................
   1      28.0375         28.0320         28.0208         28.0040         27.9816         27.9535         27.9196         27.8799         27.8344         27.7828    
          27.7251         27.6611         27.5908         27.5138         27.4301         27.3394         27.2413         27.1356         27.0219         26.8996    
          26.7683         26.6271         26.4751         26.3110         26.1333         25.9396         25.7267         25.4897         25.2210         24.9067    
   2      28.0375         28.0320         28.0208         28.0040         27.9816         27.9535         27.9196         27.8799         27.8344         27.7828    
          27.7251         27.6611         27.5908         27.5138         27.4301         27.3394         27.2413         27.1356         27.0219         26.8996    
          26.7683         26.6271         26.4751         26.3110         26.1333         25.9396         25.7267         25.4897         25.2210         24.9067    
   3      28.0375         28.0320         28.0208         28.0040         27.9816         27.9535         27.9196         27.8799         27.8344         27.7828    
          27.7251         27.6611         27.5908         27.5138         27.4301         27.3394         27.2413         27.1356         27.0219         26.8996    
          26.7683         26.6271         26.4751         26.3110         26.1333         25.9396         25.7267         25.4897         25.2210         24.9067    
   4      28.0375         28.0320         28.0208         28.0040         27.9816         27.9535         27.9196         27.8799         27.8344         27.7828    
          27.7251         27.6611         27.5908         27.5138         27.4301         27.3394         27.2413         27.1356         27.0219         26.8996    
          26.7683         26.6271         26.4751         26.3110         26.1333         25.9396         25.7267         25.4897         25.2210         24.9067    
   5      28.0375         28.0320         28.0208         28.0040         27.9816         27.9535         27.9196         27.8799         27.8344         27.7828    
          27.7251         27.6611         27.5908         27.5138         27.4301         27.3394         27.2413         27.1356         27.0219         26.8996    
          26.7683         26.6271         26.4751         26.3110         26.1333         25.9396         25.7267         25.4897         25.2210         24.9067    
   6      28.0375         28.0320         28.0208         28.0040         27.9816         27.9535         27.9196         27.8799         27.8344         27.7828    
          27.7251         27.6611         27.5908         27.5138         27.4301         27.3394         27.2413         27.1356         27.0219         26.8996    
          26.7683         26.6271         26.4751         26.3110         26.1333         25.9396         25.7267         25.4897         25.2210         24.9067    
   7      28.0375         28.0320         28.0208         28.0040         27.9816         27.9535         27.9196         27.8799         27.8344         27.7828    
          27.7251         27.6611         27.5908         27.5138         27.4301         27.3394         27.2413         27.1356         27.0219         26.8996    
          26.7683         26.6271         26.4751         26.3110         26.1333         25.9396         25.7267         25.4897         25.2210         24.9067    
   8      28.0375         28.0320         28.0208         28.0040         27.9816         27.9535         27.9196         27.8799         27.8344         27.7828    
          27.7251         27.6611         27.5908         27.5138         27.4301         27.3394         27.2413         27.1356         27.0219         26.8996    
          26.7683         26.6271         26.4751         26.3110         26.1333         25.9396         25.7267         25.4897         25.2210         24.9067    
   9      28.0375         28.0320         28.0208         28.0040         27.9816         27.9535         27.9196         27.8799         27.8344         27.7828    
          27.7251         27.6611         27.5908         27.5138         27.4301         27.3394         27.2413         27.1356         27.0219         26.8996    
          26.7683         26.6271         26.4751         26.3110         26.1333         25.9396         25.7267         25.4897         25.2210         24.9067    
  10      28.0375         28.0320         28.0208         28.0040         27.9816         27.9535         27.9196         27.8799         27.8344         27.7828    
          27.7251         27.6611         27.5908         27.5138         27.4301         27.3394         27.2413         27.1356         27.0219         26.8996    
          26.7683         26.6271         26.4751         26.3110         26.1333         25.9396         25.7267         25.4897         25.2210         24.9067    
  11      28.0375         28.0320         28.0208         28.0040         27.9816         27.9535         27.9196         27.8799         27.8344         27.7828    
          27.7251         27.6611         27.5908         27.5138         27.4301         27.3394         27.2413         27.1356         27.0219         26.8996    
          26.7683         26.6271         26.4751         26.3110         26.1333         25.9396         25.7267         25.4897         25.2210         24.9067    
  12      28.0375         28.0320         28.0208         28.0040         27.9816         27.9535         27.9196         27.8799         27.8344         27.7828    
          27.7251         27.6611         27.5908         27.5138         27.4301         27.3394         27.2413         27.1356         27.0219         26.8996    
          26.7683         26.6271         26.4751         26.3110         26.1333         25.9396         25.7267         25.4897         25.2210         24.9067    
  13      28.0375         28.0320         28.0208         28.0040         27.9816         27.9535         27.9196         27.8799         27.8344         27.7828    
          27.7251         27.6611         27.5908         27.5138         27.4301         27.3394         27.2413         27.1356         27.0219         26.8996    
          26.7683         26.6271         26.4751         26.3110         26.1333         25.9396         25.7267         25.4897         25.2210         24.9067    
  14      28.0375         28.0320         28.0208         28.0040         27.9816         27.9535         27.9196         27.8799         27.8344         27.7828    
          27.7251         27.6611         27.5908         27.5138         27.4301         27.3394         27.2413         27.1356         27.0219         26.8996    
          26.7683         26.6271         26.4751         26.3110         26.1333         25.9396         25.7267         25.4897         25.2210         24.9067    
  15      28.0375         28.0320         28.0208         28.0040         27.9816         27.9535         27.9196         27.8799         27.8344         27.7828    
          27.7251         27.6611         27.5908         27.5138         27.4301         27.3394         27.2413         27.1356         27.0219         26.8996    
          26.7683         26.6271         26.4751         26.3110         26.1333         25.9396         25.7267         25.4897         25.2210         24.9067    
  16      28.0375         28.0320         28.0208         28.0040         27.9816         27.9535         27.9196         27.8799         27.8344         27.7828    
          27.7251         27.6611         27.5908         27.5138         27.4301         27.3394         27.2413         27.1356         27.0219         26.8996    
          26.7683         26.6271         26.4751         26.3110         26.1333         25.9396         25.7267         25.4897         25.2210         24.9067    
  17      28.0375         28.0320         28.0208         28.0040         27.9816         27.9535         27.9196         27.8799         27.8344         27.7828    
          27.7251         27.6611         27.5908         27.5138         27.4301         27.3394         27.2413         27.1356         27.0219         26.8996    
          26.7683         26.6271         26.4751         26.3110         26.1333         25.9396         25.7267         25.4897         25.2210         24.9067    
  18      28.0375         28.0320         28.0208         28.0040         27.9816         27.9535         27.9196         27.8799         27.8344         27.7828    
          27.7251         27.6611         27.5908         27.5138         27.4301         27.3394         27.2413         27.1356         27.0219         26.8996    
          26.7683         26.6271         26.4751         26.3110         26.1333         25.9396         25.7267         25.4897         25.2210         24.9067    
  19      28.0375         28.0320         28.0208         28.0040         27.9816         27.9535         27.9196         27.8799         27.8344         27.7828    
          27.7251         27.6611         27.5908         27.5138         27.4301         27.3394         27.2413         27.1356         27.0219         26.8996    
          26.7683         26.6271         26.4751         26.3110         26.1333         25.9396         25.7267         25.4897         25.2210         24.9067    
  20      28.0375         28.0320         28.0208         28.0040         27.9816         27.9535         27.9196         27.8799         27.8344         27.7828    
          27.7251         27.6611         27.5908         27.5138         27.4301         27.3394         27.2413         27.1356         27.0219         26.8996    
          26.7683         26.6271         26.4751         26.3110         26.1333         25.9396         25.7267         25.4897         25.2210         24.9067    
  21      28.0375         28.0320         28.0208         28.0040         27.9816         27.9535         27.9196         27.8799         27.8344         27.7828    
          27.7251         27.6611         27.5908         27.5138         27.4301         27.3394         27.2413         27.1356         27.0219         26.8996    
          26.7683         26.6271         26.4751         26.3110         26.1333         25.9396         25.7267         25.4897         25.2210         24.9067    
  22      28.0375         28.0320         28.0208         28.0040         27.9816         27.9535         27.9196         27.8799         27.8344         27.7828    
          27.7251         27.6611         27.5908         27.5138         27.4301         27.3394         27.2413         27.1356         27.0219         26.8996    
          26.7683         26.6271         26.4751         26.3110         26.1333         25.9396         25.7267         25.4897         25.2210         24.9067    
  23      28.0375         28.0320         28.0208         28.0040         27.9816         27.9535         27.9196         27.8799         27.8344         27.7828    
          27.7251         27.6611         27.5908         27.5138         27.4301         27.3394         27.2413         27.1356         27.0219         26.8996    
          26.7683         26.6271         26.4751         26.3110         26.1333         25.9396         25.7267         25.4897         25.2210         24.9067    
  24      28.0375         28.0320         28.0208         28.0040         27.9816         27.9535         27.9196         27.8799         27.8344         27.7828    
          27.7251         27.6611         27.5908         27.5138         27.4301         27.3394         27.2413         27.1356         27.0219         26.8996    
          26.7683         26.6271         26.4751         26.3110         26.1333         25.9396         25.7267         25.4897         25.2210         24.9067    
  25      28.0375         28.0320         28.0208         28.0040         27.9816         27.9535         27.9196         27.8799         27.8344         27.7828    
          27.7251         27.6611         27.5908         27.5138         27.4301         27.3394         27.2413         27.1356         27.0219         26.8996    
          26.7683         26.6271         26.4751         26.3110         26.1333         25.9396         25.7267         25.4897         25.2210         24.9067    
  26      28.0375         28.0320         28.0208         28.0040         27.9816         27.9535         27.9196         27.8799         27.8344         27.7828    
          27.7251         27.6611         27.5908         27.5138         27.4301         27.3394         27.2413         27.1356         27.0219         26.8996    
          26.7683         26.6271         26.4751         26.3110         26.1333         25.9396         25.7267         25.4897         25.2210         24.9067    
  27      28.0375         28.0320         28.0208         28.0040         27.9816         27.9535         27.9196         27.8799         27.8344         27.7828    
          27.7251         27.6611         27.5908         27.5138         27.4301         27.3394         27.2413         27.1356         27.0219         26.8996    
          26.7683         26.6271         26.4751         26.3110         26.1333         25.9396         25.7267         25.4897         25.2210         24.9067    
  28      28.0375         28.0320         28.0208         28.0040         27.9816         27.9535         27.9196         27.8799         27.8344         27.7828    
          27.7251         27.6611         27.5908         27.5138         27.4301         27.3394         27.2413         27.1356         27.0219         26.8996    
          26.7683         26.6271         26.4751         26.3110         26.1333         25.9396         25.7267         25.4897         25.2210         24.9067    
  29      28.0375         28.0320         28.0208         28.0040         27.9816         27.9535         27.9196         27.8799         27.8344         27.7828    
          27.7251         27.6611         27.5908         27.5138         27.4301         27.3394         27.2413         27.1356         27.0219         26.8996    
          26.7683         26.6271         26.4751         26.3110         26.1333         25.9396         25.7267         25.4897         25.2210         24.9067    
  30      28.0375         28.0320         28.0208         28.0040         27.9816         27.9535         27.9196         27.8799         27.8344         27.7828    
          27.7251         27.6611         27.5908         27.5138         27.4301         27.3394         27.2413         27.1356         27.0219         26.8996    
          26.7683         26.6271         26.4751         26.3110         26.1333         25.9396         25.7267         25.4897         25.2210         24.9067    

 HEAD WILL BE SAVED ON UNIT 1019 AT END OF TIME STEP   10, STRESS PERIOD    5


  VOLUME BUDGET FOR ENTIRE MODEL AT END OF TIME STEP   10, STRESS PERIOD   5
  ---------------------------------------------------------------------------------------------------

     CUMULATIVE VOLUME      L**3       RATES FOR THIS TIME STEP      L**3/T          PACKAGE NAME    
     ------------------                 ------------------------                     ----------------

           IN:                                      IN:
           ---                                      ---
              STO-SS =           8.2634                STO-SS =       9.6878E-02     STORAGE         
              STO-SY =        5111.4935                STO-SY =          59.8892     STORAGE         
                 RCH =       22763.0219                   RCH =         107.2606     RCHA            
                 CHD =           0.0000                   CHD =           0.0000     CHD             

            TOTAL IN =       27882.7788              TOTAL IN =         167.2467

          OUT:                                     OUT:
          ----                                     ----
              STO-SS =           2.8899                STO-SS =       9.0437E-05     STORAGE         
              STO-SY =        1901.1543                STO-SY =       6.5325E-02     STORAGE         
                 RCH =           0.0000                   RCH =           0.0000     RCHA            
                 CHD =       25978.4642                   CHD =         167.1784     CHD             

           TOTAL OUT =       27882.5084             TOTAL OUT =         167.2439

            IN - OUT =           0.2704              IN - OUT =       2.8059E-03

 PERCENT DISCREPANCY =           0.00     PERCENT DISCREPANCY =           0.00




         TIME SUMMARY AT END OF TIME STEP   10 IN STRESS PERIOD    5
                    SECONDS     MINUTES      HOURS       DAYS        YEARS
                    -----------------------------------------------------------
   TIME STEP LENGTH 2.59200E+05  4320.0      72.000      3.0000     8.21355E-03
 STRESS PERIOD TIME 2.59200E+06  43200.      720.00      30.000     8.21355E-02
         TOTAL TIME 1.04544E+07 1.74240E+05  2904.0      121.00     0.33128    

 OUTPUT CONTROL FOR STRESS PERIOD 6 IS REPEATED USING SETTINGS FROM A PREVIOUS STRESS PERIOD.


 STRESS PERIOD 6 IS TRANSIENT


                 RECHARGE =  0.8219178E-03
 UBDSV1 SAVING           STO-SS ON UNIT   1018 AT TIME STEP      1, STRESS PERIOD      6
 UBDSV1 SAVING           STO-SY ON UNIT   1018 AT TIME STEP      1, STRESS PERIOD      6
 UBDSV1 SAVING     FLOW-JA-FACE ON UNIT   1018 AT TIME STEP      1, STRESS PERIOD      6
 UBDSV06 SAVING              RCH IN MODEL TEST_TRANS       PACKAGE TEST_TRANS      CONNECTED TO MODEL TEST_TRANS       PACKAGE RCHA             ON UNIT   1018 AT TIME STEP      1, STRESS PERIOD      6
 UBDSV06 SAVING              CHD IN MODEL TEST_TRANS       PACKAGE TEST_TRANS      CONNECTED TO MODEL TEST_TRANS       PACKAGE CHD              ON UNIT   1018 AT TIME STEP      1, STRESS PERIOD      6
1
  HEAD IN LAYER   1 AT END OF TIME STEP   1 IN STRESS PERIOD    6
  ---------------------------------------------------------------------------

                1               2               3               4               5               6               7               8               9              10
               11              12              13              14              15              16              17              18              19              20
               21              22              23              24              25              26              27              28              29              30
 ................................................................................................................................................................
   1      28.0140         28.0085         27.9974         27.9808         27.9586         27.9307         27.8972         27.8579         27.8127         27.7616    
          27.7045         27.6412         27.5716         27.4955         27.4128         27.3231         27.2263         27.1222         27.0104         26.8906    
          26.7627         26.6264         26.4819         26.3298         26.1720         26.0127         25.8611         25.7356         25.6726         25.7352    
   2      28.0140         28.0085         27.9974         27.9808         27.9586         27.9307         27.8972         27.8579         27.8127         27.7616    
          27.7045         27.6412         27.5716         27.4955         27.4128         27.3231         27.2263         27.1222         27.0104         26.8906    
          26.7627         26.6264         26.4819         26.3298         26.1720         26.0127         25.8611         25.7356         25.6726         25.7352    
   3      28.0140         28.0085         27.9974         27.9808         27.9586         27.9307         27.8972         27.8579         27.8127         27.7616    
          27.7045         27.6412         27.5716         27.4955         27.4128         27.3231         27.2263         27.1222         27.0104         26.8906    
          26.7627         26.6264         26.4819         26.3298         26.1720         26.0127         25.8611         25.7356         25.6726         25.7352    
   4      28.0140         28.0085         27.9974         27.9808         27.9586         27.9307         27.8972         27.8579         27.8127         27.7616    
          27.7045         27.6412         27.5716         27.4955         27.4128         27.3231         27.2263         27.1222         27.0104         26.8906    
          26.7627         26.6264         26.4819         26.3298         26.1720         26.0127         25.8611         25.7356         25.6726         25.7352    
   5      28.0140         28.0085         27.9974         27.9808         27.9586         27.9307         27.8972         27.8579         27.8127         27.7616    
          27.7045         27.6412         27.5716         27.4955         27.4128         27.3231         27.2263         27.1222         27.0104         26.8906    
          26.7627         26.6264         26.4819         26.3298         26.1720         26.0127         25.8611         25.7356         25.6726         25.7352    
   6      28.0140         28.0085         27.9974         27.9808         27.9586         27.9307         27.8972         27.8579         27.8127         27.7616    
          27.7045         27.6412         27.5716         27.4955         27.4128         27.3231         27.2263         27.1222         27.0104         26.8906    
          26.7627         26.6264         26.4819         26.3298         26.1720         26.0127         25.8611         25.7356         25.6726         25.7352    
   7      28.0140         28.0085         27.9974         27.9808         27.9586         27.9307         27.8972         27.8579         27.8127         27.7616    
          27.7045         27.6412         27.5716         27.4955         27.4128         27.3231         27.2263         27.1222         27.0104         26.8906    
          26.7627         26.6264         26.4819         26.3298         26.1720         26.0127         25.8611         25.7356         25.6726         25.7352    
   8      28.0140         28.0085         27.9974         27.9808         27.9586         27.9307         27.8972         27.8579         27.8127         27.7616    
          27.7045         27.6412         27.5716         27.4955         27.4128         27.3231         27.2263         27.1222         27.0104         26.8906    
          26.7627         26.6264         26.4819         26.3298         26.1720         26.0127         25.8611         25.7356         25.6726         25.7352    
   9      28.0140         28.0085         27.9974         27.9808         27.9586         27.9307         27.8972         27.8579         27.8127         27.7616    
          27.7045         27.6412         27.5716         27.4955         27.4128         27.3231         27.2263         27.1222         27.0104         26.8906    
          26.7627         26.6264         26.4819         26.3298         26.1720         26.0127         25.8611         25.7356         25.6726         25.7352    
  10      28.0140         28.0085         27.9974         27.9808         27.9586         27.9307         27.8972         27.8579         27.8127         27.7616    
          27.7045         27.6412         27.5716         27.4955         27.4128         27.3231         27.2263         27.1222         27.0104         26.8906    
          26.7627         26.6264         26.4819         26.3298         26.1720         26.0127         25.8611         25.7356         25.6726         25.7352    
  11      28.0140         28.0085         27.9974         27.9808         27.9586         27.9307         27.8972         27.8579         27.8127         27.7616    
          27.7045         27.6412         27.5716         27.4955         27.4128         27.3231         27.2263         27.1222         27.0104         26.8906    
          26.7627         26.6264         26.4819         26.3298         26.1720         26.0127         25.8611         25.7356         25.6726         25.7352    
  12      28.0140         28.0085         27.9974         27.9808         27.9586         27.9307         27.8972         27.8579         27.8127         27.7616    
          27.7045         27.6412         27.5716         27.4955         27.4128         27.3231         27.2263         27.1222         27.0104         26.8906    
          26.7627         26.6264         26.4819         26.3298         26.1720         26.0127         25.8611         25.7356         25.6726         25.7352    
  13      28.0140         28.0085         27.9974         27.9808         27.9586         27.9307         27.8972         27.8579         27.8127         27.7616    
          27.7045         27.6412         27.5716         27.4955         27.4128         27.3231         27.2263         27.1222         27.0104         26.8906    
          26.7627         26.6264         26.4819         26.3298         26.1720         26.0127         25.8611         25.7356         25.6726         25.7352    
  14      28.0140         28.0085         27.9974         27.9808         27.9586         27.9307         27.8972         27.8579         27.8127         27.7616    
          27.7045         27.6412         27.5716         27.4955         27.4128         27.3231         27.2263         27.1222         27.0104         26.8906    
          26.7627         26.6264         26.4819         26.3298         26.1720         26.0127         25.8611         25.7356         25.6726         25.7352    
  15      28.0140         28.0085         27.9974         27.9808         27.9586         27.9307         27.8972         27.8579         27.8127         27.7616    
          27.7045         27.6412         27.5716         27.4955         27.4128         27.3231         27.2263         27.1222         27.0104         26.8906    
          26.7627         26.6264         26.4819         26.3298         26.1720         26.0127         25.8611         25.7356         25.6726         25.7352    
  16      28.0140         28.0085         27.9974         27.9808         27.9586         27.9307         27.8972         27.8579         27.8127         27.7616    
          27.7045         27.6412         27.5716         27.4955         27.4128         27.3231         27.2263         27.1222         27.0104         26.8906    
          26.7627         26.6264         26.4819         26.3298         26.1720         26.0127         25.8611         25.7356         25.6726         25.7352    
  17      28.0140         28.0085         27.9974         27.9808         27.9586         27.9307         27.8972         27.8579         27.8127         27.7616    
          27.7045         27.6412         27.5716         27.4955         27.4128         27.3231         27.2263         27.1222         27.0104         26.8906    
          26.7627         26.6264         26.4819         26.3298         26.1720         26.0127         25.8611         25.7356         25.6726         25.7352    
  18      28.0140         28.0085         27.9974         27.9808         27.9586         27.9307         27.8972         27.8579         27.8127         27.7616    
          27.7045         27.6412         27.5716         27.4955         27.4128         27.3231         27.2263         27.1222         27.0104         26.8906    
          26.7627         26.6264         26.4819         26.3298         26.1720         26.0127         25.8611         25.7356         25.6726         25.7352    
  19      28.0140         28.0085         27.9974         27.9808         27.9586         27.9307         27.8972         27.8579         27.8127         27.7616    
          27.7045         27.6412         27.5716         27.4955         27.4128         27.3231         27.2263         27.1222         27.0104         26.8906    
          26.7627         26.6264         26.4819         26.3298         26.1720         26.0127         25.8611         25.7356         25.6726         25.7352    
  20      28.0140         28.0085         27.9974         27.9808         27.9586         27.9307         27.8972         27.8579         27.8127         27.7616    
          27.7045         27.6412         27.5716         27.4955         27.4128         27.3231         27.2263         27.1222         27.0104         26.8906    
          26.7627         26.6264         26.4819         26.3298         26.1720         26.0127         25.8611         25.7356         25.6726         25.7352    
  21      28.0140         28.0085         27.9974         27.9808         27.9586         27.9307         27.8972         27.8579         27.8127         27.7616    
          27.7045         27.6412         27.5716         27.4955         27.4128         27.3231         27.2263         27.1222         27.0104         26.8906    
          26.7627         26.6264         26.4819         26.3298         26.1720         26.0127         25.8611         25.7356         25.6726         25.7352    
  22      28.0140         28.0085         27.9974         27.9808         27.9586         27.9307         27.8972         27.8579         27.8127         27.7616    
          27.7045         27.6412         27.5716         27.4955         27.4128         27.3231         27.2263         27.1222         27.0104         26.8906    
          26.7627         26.6264         26.4819         26.3298         26.1720         26.0127         25.8611         25.7356         25.6726         25.7352    
  23      28.0140         28.0085         27.9974         27.9808         27.9586         27.9307         27.8972         27.8579         27.8127         27.7616    
          27.7045         27.6412         27.5716         27.4955         27.4128         27.3231         27.2263         27.1222         27.0104         26.8906    
          26.7627         26.6264         26.4819         26.3298         26.1720         26.0127         25.8611         25.7356         25.6726         25.7352    
  24      28.0140         28.0085         27.9974         27.9808         27.9586         27.9307         27.8972         27.8579         27.8127         27.7616    
          27.7045         27.6412         27.5716         27.4955         27.4128         27.3231         27.2263         27.1222         27.0104         26.8906    
          26.7627         26.6264         26.4819         26.3298         26.1720         26.0127         25.8611         25.7356         25.6726         25.7352    
  25      28.0140         28.0085         27.9974         27.9808         27.9586         27.9307         27.8972         27.8579         27.8127         27.7616    
          27.7045         27.6412         27.5716         27.4955         27.4128         27.3231         27.2263         27.1222         27.0104         26.8906    
          26.7627         26.6264         26.4819         26.3298         26.1720         26.0127         25.8611         25.7356         25.6726         25.7352    
  26      28.0140         28.0085         27.9974         27.9808         27.9586         27.9307         27.8972         27.8579         27.8127         27.7616    
          27.7045         27.6412         27.5716         27.4955         27.4128         27.3231         27.2263         27.1222         27.0104         26.8906    
          26.7627         26.6264         26.4819         26.3298         26.1720         26.0127         25.8611         25.7356         25.6726         25.7352    
  27      28.0140         28.0085         27.9974         27.9808         27.9586         27.9307         27.8972         27.8579         27.8127         27.7616    
          27.7045         27.6412         27.5716         27.4955         27.4128         27.3231         27.2263         27.1222         27.0104         26.8906    
          26.7627         26.6264         26.4819         26.3298         26.1720         26.0127         25.8611         25.7356         25.6726         25.7352    
  28      28.0140         28.0085         27.9974         27.9808         27.9586         27.9307         27.8972         27.8579         27.8127         27.7616    
          27.7045         27.6412         27.5716         27.4955         27.4128         27.3231         27.2263         27.1222         27.0104         26.8906    
          26.7627         26.6264         26.4819         26.3298         26.1720         26.0127         25.8611         25.7356         25.6726         25.7352    
  29      28.0140         28.0085         27.9974         27.9808         27.9586         27.9307         27.8972         27.8579         27.8127         27.7616    
          27.7045         27.6412         27.5716         27.4955         27.4128         27.3231         27.2263         27.1222         27.0104         26.8906    
          26.7627         26.6264         26.4819         26.3298         26.1720         26.0127         25.8611         25.7356         25.6726         25.7352    
  30      28.0140         28.0085         27.9974         27.9808         27.9586         27.9307         27.8972         27.8579         27.8127         27.7616    
          27.7045         27.6412         27.5716         27.4955         27.4128         27.3231         27.2263         27.1222         27.0104         26.8906    
          26.7627         26.6264         26.4819         26.3298         26.1720         26.0127         25.8611         25.7356         25.6726         25.7352    

 HEAD WILL BE SAVED ON UNIT 1019 AT END OF TIME STEP    1, STRESS PERIOD    6



         TIME SUMMARY AT END OF TIME STEP    1 IN STRESS PERIOD    6
                    SECONDS     MINUTES      HOURS       DAYS        YEARS
                    -----------------------------------------------------------
   TIME STEP LENGTH 2.59200E+05  4320.0      72.000      3.0000     8.21355E-03
 STRESS PERIOD TIME 2.59200E+05  4320.0      72.000      3.0000     8.21355E-03
         TOTAL TIME 1.07136E+07 1.78560E+05  2976.0      124.00     0.33949    
 UBDSV1 SAVING           STO-SS ON UNIT   1018 AT TIME STEP      2, STRESS PERIOD      6
 UBDSV1 SAVING           STO-SY ON UNIT   1018 AT TIME STEP      2, STRESS PERIOD      6
 UBDSV1 SAVING     FLOW-JA-FACE ON UNIT   1018 AT TIME STEP      2, STRESS PERIOD      6
 UBDSV06 SAVING              RCH IN MODEL TEST_TRANS       PACKAGE TEST_TRANS      CONNECTED TO MODEL TEST_TRANS       PACKAGE RCHA             ON UNIT   1018 AT TIME STEP      2, STRESS PERIOD      6
 UBDSV06 SAVING              CHD IN MODEL TEST_TRANS       PACKAGE TEST_TRANS      CONNECTED TO MODEL TEST_TRANS       PACKAGE CHD              ON UNIT   1018 AT TIME STEP      2, STRESS PERIOD      6

 HEAD WILL BE SAVED ON UNIT 1019 AT END OF TIME STEP    2, STRESS PERIOD    6
 UBDSV1 SAVING           STO-SS ON UNIT   1018 AT TIME STEP      3, STRESS PERIOD      6
 UBDSV1 SAVING           STO-SY ON UNIT   1018 AT TIME STEP      3, STRESS PERIOD      6
 UBDSV1 SAVING     FLOW-JA-FACE ON UNIT   1018 AT TIME STEP      3, STRESS PERIOD      6
 UBDSV06 SAVING              RCH IN MODEL TEST_TRANS       PACKAGE TEST_TRANS      CONNECTED TO MODEL TEST_TRANS       PACKAGE RCHA             ON UNIT   1018 AT TIME STEP      3, STRESS PERIOD      6
 UBDSV06 SAVING              CHD IN MODEL TEST_TRANS       PACKAGE TEST_TRANS      CONNECTED TO MODEL TEST_TRANS       PACKAGE CHD              ON UNIT   1018 AT TIME STEP      3, STRESS PERIOD      6

 HEAD WILL BE SAVED ON UNIT 1019 AT END OF TIME STEP    3, STRESS PERIOD    6
 UBDSV1 SAVING           STO-SS ON UNIT   1018 AT TIME STEP      4, STRESS PERIOD      6
 UBDSV1 SAVING           STO-SY ON UNIT   1018 AT TIME STEP      4, STRESS PERIOD      6
 UBDSV1 SAVING     FLOW-JA-FACE ON UNIT   1018 AT TIME STEP      4, STRESS PERIOD      6
 UBDSV06 SAVING              RCH IN MODEL TEST_TRANS       PACKAGE TEST_TRANS      CONNECTED TO MODEL TEST_TRANS       PACKAGE RCHA             ON UNIT   1018 AT TIME STEP      4, STRESS PERIOD      6
 UBDSV06 SAVING              CHD IN MODEL TEST_TRANS       PACKAGE TEST_TRANS      CONNECTED TO MODEL TEST_TRANS       PACKAGE CHD              ON UNIT   1018 AT TIME STEP      4, STRESS PERIOD      6

 HEAD WILL BE SAVED ON UNIT 1019 AT END OF TIME STEP    4, STRESS PERIOD    6
 UBDSV1 SAVING           STO-SS ON UNIT   1018 AT TIME STEP      5, STRESS PERIOD      6
 UBDSV1 SAVING           STO-SY ON UNIT   1018 AT TIME STEP      5, STRESS PERIOD      6
 UBDSV1 SAVING     FLOW-JA-FACE ON UNIT   1018 AT TIME STEP      5, STRESS PERIOD      6
 UBDSV06 SAVING              RCH IN MODEL TEST_TRANS       PACKAGE TEST_TRANS      CONNECTED TO MODEL TEST_TRANS       PACKAGE RCHA             ON UNIT   1018 AT TIME STEP      5, STRESS PERIOD      6
 UBDSV06 SAVING              CHD IN MODEL TEST_TRANS       PACKAGE TEST_TRANS      CONNECTED TO MODEL TEST_TRANS       PACKAGE CHD              ON UNIT   1018 AT TIME STEP      5, STRESS PERIOD      6

 HEAD WILL BE SAVED ON UNIT 1019 AT END OF TIME STEP    5, STRESS PERIOD    6
 UBDSV1 SAVING           STO-SS ON UNIT   1018 AT TIME STEP      6, STRESS PERIOD      6
 UBDSV1 SAVING           STO-SY ON UNIT   1018 AT TIME STEP      6, STRESS PERIOD      6
 UBDSV1 SAVING     FLOW-JA-FACE ON UNIT   1018 AT TIME STEP      6, STRESS PERIOD      6
 UBDSV06 SAVING              RCH IN MODEL TEST_TRANS       PACKAGE TEST_TRANS      CONNECTED TO MODEL TEST_TRANS       PACKAGE RCHA             ON UNIT   1018 AT TIME STEP      6, STRESS PERIOD      6
 UBDSV06 SAVING              CHD IN MODEL TEST_TRANS       PACKAGE TEST_TRANS      CONNECTED TO MODEL TEST_TRANS       PACKAGE CHD              ON UNIT   1018 AT TIME STEP      6, STRESS PERIOD      6

 HEAD WILL BE SAVED ON UNIT 1019 AT END OF TIME STEP    6, STRESS PERIOD    6
 UBDSV1 SAVING           STO-SS ON UNIT   1018 AT TIME STEP      7, STRESS PERIOD      6
 UBDSV1 SAVING           STO-SY ON UNIT   1018 AT TIME STEP      7, STRESS PERIOD      6
 UBDSV1 SAVING     FLOW-JA-FACE ON UNIT   1018 AT TIME STEP      7, STRESS PERIOD      6
 UBDSV06 SAVING              RCH IN MODEL TEST_TRANS       PACKAGE TEST_TRANS      CONNECTED TO MODEL TEST_TRANS       PACKAGE RCHA             ON UNIT   1018 AT TIME STEP      7, STRESS PERIOD      6
 UBDSV06 SAVING              CHD IN MODEL TEST_TRANS       PACKAGE TEST_TRANS      CONNECTED TO MODEL TEST_TRANS       PACKAGE CHD              ON UNIT   1018 AT TIME STEP      7, STRESS PERIOD      6

 HEAD WILL BE SAVED ON UNIT 1019 AT END OF TIME STEP    7, STRESS PERIOD    6
 UBDSV1 SAVING           STO-SS ON UNIT   1018 AT TIME STEP      8, STRESS PERIOD      6
 UBDSV1 SAVING           STO-SY ON UNIT   1018 AT TIME STEP      8, STRESS PERIOD      6
 UBDSV1 SAVING     FLOW-JA-FACE ON UNIT   1018 AT TIME STEP      8, STRESS PERIOD      6
 UBDSV06 SAVING              RCH IN MODEL TEST_TRANS       PACKAGE TEST_TRANS      CONNECTED TO MODEL TEST_TRANS       PACKAGE RCHA             ON UNIT   1018 AT TIME STEP      8, STRESS PERIOD      6
 UBDSV06 SAVING              CHD IN MODEL TEST_TRANS       PACKAGE TEST_TRANS      CONNECTED TO MODEL TEST_TRANS       PACKAGE CHD              ON UNIT   1018 AT TIME STEP      8, STRESS PERIOD      6

 HEAD WILL BE SAVED ON UNIT 1019 AT END OF TIME STEP    8, STRESS PERIOD    6
 UBDSV1 SAVING           STO-SS ON UNIT   1018 AT TIME STEP      9, STRESS PERIOD      6
 UBDSV1 SAVING           STO-SY ON UNIT   1018 AT TIME STEP      9, STRESS PERIOD      6
 UBDSV1 SAVING     FLOW-JA-FACE ON UNIT   1018 AT TIME STEP      9, STRESS PERIOD      6
 UBDSV06 SAVING              RCH IN MODEL TEST_TRANS       PACKAGE TEST_TRANS      CONNECTED TO MODEL TEST_TRANS       PACKAGE RCHA             ON UNIT   1018 AT TIME STEP      9, STRESS PERIOD      6
 UBDSV06 SAVING              CHD IN MODEL TEST_TRANS       PACKAGE TEST_TRANS      CONNECTED TO MODEL TEST_TRANS       PACKAGE CHD              ON UNIT   1018 AT TIME STEP      9, STRESS PERIOD      6

 HEAD WILL BE SAVED ON UNIT 1019 AT END OF TIME STEP    9, STRESS PERIOD    6
 UBDSV1 SAVING           STO-SS ON UNIT   1018 AT TIME STEP     10, STRESS PERIOD      6
 UBDSV1 SAVING           STO-SY ON UNIT   1018 AT TIME STEP     10, STRESS PERIOD      6
 UBDSV1 SAVING     FLOW-JA-FACE ON UNIT   1018 AT TIME STEP     10, STRESS PERIOD      6
 UBDSV06 SAVING              RCH IN MODEL TEST_TRANS       PACKAGE TEST_TRANS      CONNECTED TO MODEL TEST_TRANS       PACKAGE RCHA             ON UNIT   1018 AT TIME STEP     10, STRESS PERIOD      6
 UBDSV06 SAVING              CHD IN MODEL TEST_TRANS       PACKAGE TEST_TRANS      CONNECTED TO MODEL TEST_TRANS       PACKAGE CHD              ON UNIT   1018 AT TIME STEP     10, STRESS PERIOD      6
1
  HEAD IN LAYER   1 AT END OF TIME STEP  10 IN STRESS PERIOD    6
  ---------------------------------------------------------------------------

                1               2               3               4               5               6               7               8               9              10
               11              12              13              14              15              16              17              18              19              20
               21              22              23              24              25              26              27              28              29              30
 ................................................................................................................................................................
   1      27.8277         27.8228         27.8131         27.7985         27.7790         27.7547         27.7255         27.6914         27.6525         27.6088    
          27.5602         27.5069         27.4488         27.3860         27.3186         27.2465         27.1698         27.0887         27.0031         26.9131    
          26.8188         26.7200         26.6169         26.5091         26.3964         26.2783         26.1543         26.0234         25.8843         25.7352    
   2      27.8277         27.8228         27.8131         27.7985         27.7790         27.7547         27.7255         27.6914         27.6525         27.6088    
          27.5602         27.5069         27.4488         27.3860         27.3186         27.2465         27.1698         27.0887         27.0031         26.9131    
          26.8188         26.7200         26.6169         26.5091         26.3964         26.2783         26.1543         26.0234         25.8843         25.7352    
   3      27.8277         27.8228         27.8131         27.7985         27.7790         27.7547         27.7255         27.6914         27.6525         27.6088    
          27.5602         27.5069         27.4488         27.3860         27.3186         27.2465         27.1698         27.0887         27.0031         26.9131    
          26.8188         26.7200         26.6169         26.5091         26.3964         26.2783         26.1543         26.0234         25.8843         25.7352    
   4      27.8277         27.8228         27.8131         27.7985         27.7790         27.7547         27.7255         27.6914         27.6525         27.6088    
          27.5602         27.5069         27.4488         27.3860         27.3186         27.2465         27.1698         27.0887         27.0031         26.9131    
          26.8188         26.7200         26.6169         26.5091         26.3964         26.2783         26.1543         26.0234         25.8843         25.7352    
   5      27.8277         27.8228         27.8131         27.7985         27.7790         27.7547         27.7255         27.6914         27.6525         27.6088    
          27.5602         27.5069         27.4488         27.3860         27.3186         27.2465         27.1698         27.0887         27.0031         26.9131    
          26.8188         26.7200         26.6169         26.5091         26.3964         26.2783         26.1543         26.0234         25.8843         25.7352    
   6      27.8277         27.8228         27.8131         27.7985         27.7790         27.7547         27.7255         27.6914         27.6525         27.6088    
          27.5602         27.5069         27.4488         27.3860         27.3186         27.2465         27.1698         27.0887         27.0031         26.9131    
          26.8188         26.7200         26.6169         26.5091         26.3964         26.2783         26.1543         26.0234         25.8843         25.7352    
   7      27.8277         27.8228         27.8131         27.7985         27.7790         27.7547         27.7255         27.6914         27.6525         27.6088    
          27.5602         27.5069         27.4488         27.3860         27.3186         27.2465         27.1698         27.0887         27.0031         26.9131    
          26.8188         26.7200         26.6169         26.5091         26.3964         26.2783         26.1543         26.0234         25.8843         25.7352    
   8      27.8277         27.8228         27.8131         27.7985         27.7790         27.7547         27.7255         27.6914         27.6525         27.6088    
          27.5602         27.5069         27.4488         27.3860         27.3186         27.2465         27.1698         27.0887         27.0031         26.9131    
          26.8188         26.7200         26.6169         26.5091         26.3964         26.2783         26.1543         26.0234         25.8843         25.7352    
   9      27.8277         27.8228         27.8131         27.7985         27.7790         27.7547         27.7255         27.6914         27.6525         27.6088    
          27.5602         27.5069         27.4488         27.3860         27.3186         27.2465         27.1698         27.0887         27.0031         26.9131    
          26.8188         26.7200         26.6169         26.5091         26.3964         26.2783         26.1543         26.0234         25.8843         25.7352    
  10      27.8277         27.8228         27.8131         27.7985         27.7790         27.7547         27.7255         27.6914         27.6525         27.6088    
          27.5602         27.5069         27.4488         27.3860         27.3186         27.2465         27.1698         27.0887         27.0031         26.9131    
          26.8188         26.7200         26.6169         26.5091         26.3964         26.2783         26.1543         26.0234         25.8843         25.7352    
  11      27.8277         27.8228         27.8131         27.7985         27.7790         27.7547         27.7255         27.6914         27.6525         27.6088    
          27.5602         27.5069         27.4488         27.3860         27.3186         27.2465         27.1698         27.0887         27.0031         26.9131    
          26.8188         26.7200         26.6169         26.5091         26.3964         26.2783         26.1543         26.0234         25.8843         25.7352    
  12      27.8277         27.8228         27.8131         27.7985         27.7790         27.7547         27.7255         27.6914         27.6525         27.6088    
          27.5602         27.5069         27.4488         27.3860         27.3186         27.2465         27.1698         27.0887         27.0031         26.9131    
          26.8188         26.7200         26.6169         26.5091         26.3964         26.2783         26.1543         26.0234         25.8843         25.7352    
  13      27.8277         27.8228         27.8131         27.7985         27.7790         27.7547         27.7255         27.6914         27.6525         27.6088    
          27.5602         27.5069         27.4488         27.3860         27.3186         27.2465         27.1698         27.0887         27.0031         26.9131    
          26.8188         26.7200         26.6169         26.5091         26.3964         26.2783         26.1543         26.0234         25.8843         25.7352    
  14      27.8277         27.8228         27.8131         27.7985         27.7790         27.7547         27.7255         27.6914         27.6525         27.6088    
          27.5602         27.5069         27.4488         27.3860         27.3186         27.2465         27.1698         27.0887         27.0031         26.9131    
          26.8188         26.7200         26.6169         26.5091         26.3964         26.2783         26.1543         26.0234         25.8843         25.7352    
  15      27.8277         27.8228         27.8131         27.7985         27.7790         27.7547         27.7255         27.6914         27.6525         27.6088    
          27.5602         27.5069         27.4488         27.3860         27.3186         27.2465         27.1698         27.0887         27.0031         26.9131    
          26.8188         26.7200         26.6169         26.5091         26.3964         26.2783         26.1543         26.0234         25.8843         25.7352    
  16      27.8277         27.8228         27.8131         27.7985         27.7790         27.7547         27.7255         27.6914         27.6525         27.6088    
          27.5602         27.5069         27.4488         27.3860         27.3186         27.2465         27.1698         27.0887         27.0031         26.9131    
          26.8188         26.7201         26.6169         26.5091         26.3964         26.2783         26.1543         26.0234         25.8843         25.7352    
  17      27.8277         27.8228         27.8131         27.7985         27.7790         27.7547         27.7255         27.6914         27.6525         27.6088    
          27.5602         27.5069         27.4488         27.3860         27.3186         27.2465         27.1698         27.0887         27.0031         26.9131    
          26.8188         26.7201         26.6169         26.5091         26.3964         26.2783         26.1543         26.0234         25.8843         25.7352    
  18      27.8277         27.8228         27.8131         27.7985         27.7790         27.7547         27.7255         27.6914         27.6525         27.6088    
          27.5602         27.5069         27.4488         27.3860         27.3186         27.2465         27.1698         27.0887         27.0031         26.9131    
          26.8188         26.7201         26.6169         26.5091         26.3964         26.2783         26.1543         26.0234         25.8843         25.7352    
  19      27.8277         27.8228         27.8131         27.7985         27.7790         27.7547         27.7255         27.6914         27.6525         27.6088    
          27.5602         27.5069         27.4488         27.3860         27.3186         27.2465         27.1698         27.0887         27.0031         26.9131    
          26.8188         26.7201         26.6169         26.5091         26.3964         26.2783         26.1543         26.0234         25.8843         25.7352    
  20      27.8277         27.8228         27.8131         27.7985         27.7790         27.7547         27.7255         27.6914         27.6525         27.6088    
          27.5602         27.5069         27.4488         27.3860         27.3186         27.2465         27.1698         27.0887         27.0031         26.9131    
          26.8188         26.7201         26.6169         26.5091         26.3964         26.2783         26.1543         26.0234         25.8843         25.7352    
  21      27.8277         27.8228         27.8131         27.7985         27.7790         27.7547         27.7255         27.6914         27.6525         27.6088    
          27.5602         27.5069         27.4488         27.3860         27.3186         27.2465         27.1698         27.0887         27.0031         26.9131    
          26.8188         26.7201         26.6169         26.5091         26.3964         26.2783         26.1543         26.0234         25.8843         25.7352    
  22      27.8277         27.8228         27.8131         27.7985         27.7790         27.7547         27.7255         27.6914         27.6525         27.6088    
          27.5602         27.5069         27.4488         27.3860         27.3186         27.2465         27.1698         27.0887         27.0031         26.9131    
          26.8188         26.7201         26.6169         26.5091         26.3964         26.2783         26.1543         26.0234         25.8843         25.7352    
  23      27.8277         27.8228         27.8131         27.7985         27.7790         27.7547         27.7255         27.6914         27.6525         27.6088    
          27.5603         27.5069         27.4488         27.3860         27.3186         27.2465         27.1698         27.0887         27.0031         26.9131    
          26.8188         26.7201         26.6169         26.5091         26.3964         26.2783         26.1543         26.0234         25.8843         25.7352    
  24      27.8277         27.8228         27.8131         27.7985         27.7790         27.7547         27.7255         27.6914         27.6525         27.6088    
          27.5603         27.5069         27.4488         27.3860         27.3186         27.2465         27.1698         27.0887         27.0031         26.9131    
          26.8188         26.7201         26.6169         26.5091         26.3964         26.2783         26.1543         26.0234         25.8843         25.7352    
  25      27.8277         27.8228         27.8131         27.7985         27.7790         27.7547         27.7255         27.6914         27.6525         27.6088    
          27.5603         27.5069         27.4488         27.3860         27.3186         27.2465         27.1698         27.0887         27.0031         26.9131    
          26.8188         26.7201         26.6169         26.5091         26.3964         26.2783         26.1543         26.0234         25.8843         25.7352    
  26      27.8277         27.8228         27.8131         27.7985         27.7790         27.7547         27.7255         27.6914         27.6525         27.6088    
          27.5603         27.5069         27.4488         27.3860         27.3186         27.2465         27.1698         27.0887         27.0031         26.9131    
          26.8188         26.7201         26.6169         26.5091         26.3964         26.2783         26.1543         26.0234         25.8843         25.7352    
  27      27.8277         27.8228         27.8131         27.7985         27.7790         27.7547         27.7255         27.6914         27.6525         27.6088    
          27.5603         27.5069         27.4488         27.3860         27.3186         27.2465         27.1698         27.0887         27.0031         26.9131    
          26.8188         26.7201         26.6169         26.5091         26.3964         26.2783         26.1543         26.0234         25.8843         25.7352    
  28      27.8277         27.8228         27.8131         27.7985         27.7790         27.7547         27.7255         27.6914         27.6525         27.6088    
          27.5603         27.5069         27.4488         27.3860         27.3186         27.2465         27.1698         27.0887         27.0031         26.9131    
          26.8188         26.7201         26.6169         26.5091         26.3964         26.2783         26.1543         26.0234         25.8843         25.7352    
  29      27.8277         27.8228         27.8131         27.7985         27.7790         27.7547         27.7255         27.6914         27.6525         27.6088    
          27.5603         27.5069         27.4488         27.3860         27.3186         27.2465         27.1698         27.0887         27.0031         26.9131    
          26.8188         26.7201         26.6169         26.5091         26.3964         26.2783         26.1543         26.0234         25.8843         25.7352    
  30      27.8277         27.8228         27.8131         27.7985         27.7790         27.7547         27.7255         27.6914         27.6525         27.6088    
          27.5603         27.5069         27.4488         27.3860         27.3186         27.2465         27.1698         27.0887         27.0031         26.9131    
          26.8188         26.7201         26.6169         26.5091         26.3964         26.2783         26.1543         26.0234         25.8842         25.7352    

 HEAD WILL BE SAVED ON UNIT 1019 AT END OF TIME STEP   10, STRESS PERIOD    6


  VOLUME BUDGET FOR ENTIRE MODEL AT END OF TIME STEP   10, STRESS PERIOD   6
  ---------------------------------------------------------------------------------------------------

     CUMULATIVE VOLUME      L**3       RATES FOR THIS TIME STEP      L**3/T          PACKAGE NAME    
     ------------------                 ------------------------                     ----------------

           IN:                                      IN:
           ---                                      ---
              STO-SS =          11.1099                STO-SS =       7.3356E-02     STORAGE         
              STO-SY =        6867.0295                STO-SY =          45.3759     STORAGE         
                 RCH =       24908.2274                   RCH =          71.5068     RCHA            
                 CHD =         131.4848                   CHD =           0.0000     CHD             

            TOTAL IN =       31917.8516              TOTAL IN =         116.9561

          OUT:                                     OUT:
          ----                                     ----
              STO-SS =           5.2763                STO-SS =       1.2593E-02     STORAGE         
              STO-SY =        3549.0793                STO-SY =           8.4502     STORAGE         
                 RCH =           0.0000                   RCH =           0.0000     RCHA            
                 CHD =       28363.2647                   CHD =         108.4942     CHD             

           TOTAL OUT =       31917.6203             TOTAL OUT =         116.9569

            IN - OUT =           0.2314              IN - OUT =      -7.9062E-04

 PERCENT DISCREPANCY =           0.00     PERCENT DISCREPANCY =          -0.00




         TIME SUMMARY AT END OF TIME STEP   10 IN STRESS PERIOD    6
                    SECONDS     MINUTES      HOURS       DAYS        YEARS
                    -----------------------------------------------------------
   TIME STEP LENGTH 2.59200E+05  4320.0      72.000      3.0000     8.21355E-03
 STRESS PERIOD TIME 2.59200E+06  43200.      720.00      30.000     8.21355E-02
         TOTAL TIME 1.30464E+07 2.17440E+05  3624.0      151.00     0.41342    

 OUTPUT CONTROL FOR STRESS PERIOD 7 IS REPEATED USING SETTINGS FROM A PREVIOUS STRESS PERIOD.


 STRESS PERIOD 7 IS TRANSIENT


                 RECHARGE =  0.5479452E-03
 UBDSV1 SAVING           STO-SS ON UNIT   1018 AT TIME STEP      1, STRESS PERIOD      7
 UBDSV1 SAVING           STO-SY ON UNIT   1018 AT TIME STEP      1, STRESS PERIOD      7
 UBDSV1 SAVING     FLOW-JA-FACE ON UNIT   1018 AT TIME STEP      1, STRESS PERIOD      7
 UBDSV06 SAVING              RCH IN MODEL TEST_TRANS       PACKAGE TEST_TRANS      CONNECTED TO MODEL TEST_TRANS       PACKAGE RCHA             ON UNIT   1018 AT TIME STEP      1, STRESS PERIOD      7
 UBDSV06 SAVING              CHD IN MODEL TEST_TRANS       PACKAGE TEST_TRANS      CONNECTED TO MODEL TEST_TRANS       PACKAGE CHD              ON UNIT   1018 AT TIME STEP      1, STRESS PERIOD      7
1
  HEAD IN LAYER   1 AT END OF TIME STEP   1 IN STRESS PERIOD    7
  ---------------------------------------------------------------------------

                1               2               3               4               5               6               7               8               9              10
               11              12              13              14              15              16              17              18              19              20
               21              22              23              24              25              26              27              28              29              30
 ................................................................................................................................................................
   1      27.8062         27.8015         27.7919         27.7776         27.7585         27.7346         27.7060         27.6727         27.6346         27.5918    
          27.5443         27.4921         27.4353         27.3739         27.3081         27.2378         27.1631         27.0843         27.0015         26.9150    
          26.8253         26.7332         26.6397         26.5469         26.4583         26.3796         26.3208         26.2982         26.3378         26.4774    
   2      27.8062         27.8015         27.7919         27.7776         27.7585         27.7346         27.7060         27.6727         27.6346         27.5918    
          27.5443         27.4921         27.4353         27.3739         27.3081         27.2378         27.1631         27.0843         27.0015         26.9150    
          26.8253         26.7332         26.6397         26.5469         26.4583         26.3796         26.3208         26.2982         26.3378         26.4774    
   3      27.8062         27.8015         27.7919         27.7776         27.7585         27.7346         27.7060         27.6727         27.6346         27.5918    
          27.5443         27.4921         27.4353         27.3739         27.3081         27.2378         27.1631         27.0843         27.0015         26.9150    
          26.8253         26.7332         26.6397         26.5469         26.4583         26.3796         26.3208         26.2982         26.3378         26.4774    
   4      27.8062         27.8015         27.7919         27.7776         27.7585         27.7346         27.7060         27.6727         27.6346         27.5918    
          27.5443         27.4921         27.4353         27.3739         27.3081         27.2378         27.1631         27.0843         27.0015         26.9150    
          26.8253         26.7332         26.6397         26.5469         26.4583         26.3796         26.3208         26.2982         26.3378         26.4774    
   5      27.8062         27.8015         27.7919         27.7776         27.7585         27.7346         27.7060         27.6727         27.6346         27.5918    
          27.5443         27.4921         27.4353         27.3739         27.3081         27.2378         27.1631         27.0843         27.0015         26.9150    
          26.8253         26.7332         26.6397         26.5469         26.4583         26.3796         26.3208         26.2982         26.3378         26.4774    
   6      27.8062         27.8015         27.7919         27.7776         27.7585         27.7346         27.7060         27.6727         27.6346         27.5918    
          27.5443         27.4921         27.4353         27.3739         27.3081         27.2378         27.1631         27.0843         27.0015         26.9150    
          26.8253         26.7332         26.6397         26.5469         26.4583         26.3796         26.3208         26.2982         26.3378         26.4774    
   7      27.8062         27.8015         27.7919         27.7776         27.7585         27.7346         27.7060         27.6727         27.6346         27.5918    
          27.5443         27.4921         27.4353         27.3739         27.3081         27.2378         27.1631         27.0843         27.0015         26.9150    
          26.8253         26.7332         26.6397         26.5469         26.4583         26.3796         26.3208         26.2982         26.3378         26.4774    
   8      27.8062         27.8015         27.7919         27.7776         27.7585         27.7346         27.7060         27.6727         27.6346         27.5918    
          27.5443         27.4921         27.4353         27.3739         27.3081         27.2378         27.1631         27.0843         27.0015         26.9150    
          26.8253         26.7332         26.6397         26.5469         26.4583         26.3796         26.3208         26.2982         26.3378         26.4774    
   9      27.8062         27.8015         27.7919         27.7776         27.7585         27.7346         27.7060         27.6727         27.6346         27.5918    
          27.5443         27.4921         27.4353         27.3739         27.3081         27.2378         27.1631         27.0843         27.0015         26.9150    
          26.8253         26.7332         26.6397         26.5469         26.4583         26.3796         26.3208         26.2982         26.3378         26.4774    
  10      27.8062         27.8015         27.7919         27.7776         27.7585         27.7346         27.7060         27.6727         27.6346         27.5918    
          27.5443         27.4921         27.4353         27.3739         27.3081         27.2378         27.1631         27.0843         27.0015         26.9150    
          26.8253         26.7332         26.6397         26.5469         26.4583         26.3796         26.3208         26.2982         26.3378         26.4774    
  11      27.8062         27.8015         27.7919         27.7776         27.7585         27.7346         27.7060         27.6727         27.6346         27.5918    
          27.5443         27.4921         27.4353         27.3739         27.3081         27.2378         27.1631         27.0843         27.0015         26.9150    
          26.8253         26.7332         26.6397         26.5469         26.4583         26.3796         26.3208         26.2982         26.3378         26.4774    
  12      27.8062         27.8015         27.7919         27.7776         27.7585         27.7346         27.7060         27.6727         27.6346         27.5918    
          27.5443         27.4921         27.4353         27.3739         27.3081         27.2378         27.1631         27.0843         27.0015         26.9150    
          26.8253         26.7332         26.6397         26.5469         26.4583         26.3796         26.3208         26.2982         26.3378         26.4774    
  13      27.8062         27.8015         27.7919         27.7776         27.7585         27.7346         27.7060         27.6727         27.6346         27.5918    
          27.5443         27.4921         27.4353         27.3739         27.3081         27.2378         27.1631         27.0843         27.0015         26.9150    
          26.8253         26.7332         26.6397         26.5469         26.4583         26.3796         26.3208         26.2982         26.3378         26.4774    
  14      27.8062         27.8015         27.7919         27.7776         27.7585         27.7346         27.7060         27.6727         27.6346         27.5918    
          27.5443         27.4921         27.4353         27.3739         27.3081         27.2378         27.1631         27.0843         27.0015         26.9150    
          26.8253         26.7332         26.6397         26.5469         26.4583         26.3796         26.3208         26.2982         26.3378         26.4774    
  15      27.8062         27.8015         27.7919         27.7776         27.7585         27.7346         27.7060         27.6727         27.6346         27.5918    
          27.5443         27.4921         27.4353         27.3739         27.3081         27.2378         27.1631         27.0843         27.0015         26.9150    
          26.8253         26.7332         26.6397         26.5469         26.4583         26.3796         26.3208         26.2982         26.3378         26.4774    
  16      27.8062         27.8015         27.7919         27.7776         27.7585         27.7346         27.7060         27.6727         27.6346         27.5918    
          27.5443         27.4921         27.4353         27.3739         27.3081         27.2378         27.1631         27.0843         27.0015         26.9150    
          26.8253         26.7332         26.6397         26.5469         26.4583         26.3796         26.3208         26.2982         26.3378         26.4774    
  17      27.8062         27.8015         27.7919         27.7776         27.7585         27.7346         27.7060         27.6727         27.6346         27.5918    
          27.5443         27.4921         27.4353         27.3739         27.3081         27.2378         27.1631         27.0843         27.0015         26.9150    
          26.8253         26.7332         26.6397         26.5469         26.4583         26.3796         26.3208         26.2982         26.3378         26.4774    
  18      27.8062         27.8015         27.7919         27.7776         27.7585         27.7346         27.7060         27.6727         27.6346         27.5918    
          27.5443         27.4921         27.4353         27.3739         27.3081         27.2378         27.1631         27.0843         27.0015         26.9150    
          26.8253         26.7332         26.6397         26.5469         26.4583         26.3796         26.3208         26.2982         26.3378         26.4774    
  19      27.8062         27.8015         27.7919         27.7776         27.7585         27.7346         27.7060         27.6727         27.6346         27.5918    
          27.5443         27.4921         27.4353         27.3739         27.3081         27.2378         27.1631         27.0843         27.0015         26.9150    
          26.8253         26.7332         26.6397         26.5469         26.4583         26.3796         26.3208         26.2982         26.3378         26.4774    
  20      27.8062         27.8015         27.7919         27.7776         27.7585         27.7346         27.7060         27.6727         27.6346         27.5918    
          27.5443         27.4921         27.4353         27.3739         27.3081         27.2378         27.1631         27.0843         27.0015         26.9150    
          26.8253         26.7332         26.6397         26.5469         26.4583         26.3796         26.3208         26.2982         26.3378         26.4774    
  21      27.8062         27.8015         27.7919         27.7776         27.7585         27.7346         27.7060         27.6727         27.6346         27.5918    
          27.5443         27.4921         27.4353         27.3739         27.3081         27.2378         27.1631         27.0843         27.0015         26.9150    
          26.8253         26.7332         26.6397         26.5469         26.4583         26.3796         26.3208         26.2982         26.3378         26.4774    
  22      27.8062         27.8015         27.7919         27.7776         27.7585         27.7346         27.7060         27.6727         27.6346         27.5918    
          27.5443         27.4921         27.4353         27.3739         27.3081         27.2378         27.1631         27.0843         27.0015         26.9150    
          26.8254         26.7332         26.6397         26.5469         26.4583         26.3796         26.3208         26.2982         26.3378         26.4774    
  23      27.8062         27.8015         27.7919         27.7776         27.7585         27.7346         27.7060         27.6727         27.6346         27.5918    
          27.5443         27.4921         27.4353         27.3739         27.3081         27.2378         27.1631         27.0843         27.0015         26.9150    
          26.8254         26.7332         26.6397         26.5469         26.4583         26.3796         26.3208         26.2982         26.3378         26.4774    
  24      27.8062         27.8015         27.7919         27.7776         27.7585         27.7346         27.7060         27.6727         27.6346         27.5918    
          27.5443         27.4921         27.4353         27.3739         27.3081         27.2378         27.1631         27.0843         27.0015         26.9150    
          26.8254         26.7332         26.6397         26.5469         26.4583         26.3796         26.3208         26.2982         26.3378         26.4774    
  25      27.8062         27.8015         27.7919         27.7776         27.7585         27.7346         27.7060         27.6727         27.6346         27.5918    
          27.5443         27.4921         27.4353         27.3739         27.3081         27.2378         27.1631         27.0843         27.0015         26.9150    
          26.8254         26.7332         26.6397         26.5469         26.4583         26.3796         26.3208         26.2982         26.3378         26.4774    
  26      27.8062         27.8015         27.7919         27.7776         27.7585         27.7346         27.7060         27.6727         27.6346         27.5918    
          27.5443         27.4921         27.4353         27.3739         27.3081         27.2378         27.1631         27.0843         27.0015         26.9150    
          26.8254         26.7332         26.6397         26.5469         26.4583         26.3796         26.3208         26.2982         26.3378         26.4774    
  27      27.8062         27.8015         27.7919         27.7776         27.7585         27.7346         27.7060         27.6727         27.6346         27.5918    
          27.5443         27.4921         27.4353         27.3739         27.3081         27.2378         27.1631         27.0843         27.0015         26.9150    
          26.8254         26.7332         26.6397         26.5469         26.4583         26.3796         26.3208         26.2982         26.3378         26.4774    
  28      27.8062         27.8015         27.7919         27.7776         27.7585         27.7346         27.7060         27.6727         27.6346         27.5918    
          27.5443         27.4921         27.4353         27.3739         27.3081         27.2378         27.1631         27.0843         27.0015         26.9150    
          26.8254         26.7332         26.6397         26.5469         26.4583         26.3796         26.3208         26.2982         26.3378         26.4774    
  29      27.8062         27.8015         27.7919         27.7776         27.7585         27.7346         27.7060         27.6727         27.6346         27.5918    
          27.5443         27.4921         27.4353         27.3739         27.3081         27.2378         27.1631         27.0843         27.0015         26.9151    
          26.8254         26.7332         26.6397         26.5469         26.4583         26.3796         26.3208         26.2982         26.3378         26.4774    
  30      27.8062         27.8015         27.7919         27.7776         27.7585         27.7346         27.7060         27.6727         27.6346         27.5918    
          27.5443         27.4921         27.4353         27.3739         27.3081         27.2378         27.1631         27.0843         27.0015         26.9151    
          26.8254         26.7332         26.6397         26.5469         26.4583         26.3796         26.3208         26.2982         26.3378         26.4774    

 HEAD WILL BE SAVED ON UNIT 1019 AT END OF TIME STEP    1, STRESS PERIOD    7



         TIME SUMMARY AT END OF TIME STEP    1 IN STRESS PERIOD    7
                    SECONDS     MINUTES      HOURS       DAYS        YEARS
                    -----------------------------------------------------------
   TIME STEP LENGTH 2.59200E+05  4320.0      72.000      3.0000     8.21355E-03
 STRESS PERIOD TIME 2.59200E+05  4320.0      72.000      3.0000     8.21355E-03
         TOTAL TIME 1.33056E+07 2.21760E+05  3696.0      154.00     0.42163    
 UBDSV1 SAVING           STO-SS ON UNIT   1018 AT TIME STEP      2, STRESS PERIOD      7
 UBDSV1 SAVING           STO-SY ON UNIT   1018 AT TIME STEP      2, STRESS PERIOD      7
 UBDSV1 SAVING     FLOW-JA-FACE ON UNIT   1018 AT TIME STEP      2, STRESS PERIOD      7
 UBDSV06 SAVING              RCH IN MODEL TEST_TRANS       PACKAGE TEST_TRANS      CONNECTED TO MODEL TEST_TRANS       PACKAGE RCHA             ON UNIT   1018 AT TIME STEP      2, STRESS PERIOD      7
 UBDSV06 SAVING              CHD IN MODEL TEST_TRANS       PACKAGE TEST_TRANS      CONNECTED TO MODEL TEST_TRANS       PACKAGE CHD              ON UNIT   1018 AT TIME STEP      2, STRESS PERIOD      7

 HEAD WILL BE SAVED ON UNIT 1019 AT END OF TIME STEP    2, STRESS PERIOD    7
 UBDSV1 SAVING           STO-SS ON UNIT   1018 AT TIME STEP      3, STRESS PERIOD      7
 UBDSV1 SAVING           STO-SY ON UNIT   1018 AT TIME STEP      3, STRESS PERIOD      7
 UBDSV1 SAVING     FLOW-JA-FACE ON UNIT   1018 AT TIME STEP      3, STRESS PERIOD      7
 UBDSV06 SAVING              RCH IN MODEL TEST_TRANS       PACKAGE TEST_TRANS      CONNECTED TO MODEL TEST_TRANS       PACKAGE RCHA             ON UNIT   1018 AT TIME STEP      3, STRESS PERIOD      7
 UBDSV06 SAVING              CHD IN MODEL TEST_TRANS       PACKAGE TEST_TRANS      CONNECTED TO MODEL TEST_TRANS       PACKAGE CHD              ON UNIT   1018 AT TIME STEP      3, STRESS PERIOD      7

 HEAD WILL BE SAVED ON UNIT 1019 AT END OF TIME STEP    3, STRESS PERIOD    7
 UBDSV1 SAVING           STO-SS ON UNIT   1018 AT TIME STEP      4, STRESS PERIOD      7
 UBDSV1 SAVING           STO-SY ON UNIT   1018 AT TIME STEP      4, STRESS PERIOD      7
 UBDSV1 SAVING     FLOW-JA-FACE ON UNIT   1018 AT TIME STEP      4, STRESS PERIOD      7
 UBDSV06 SAVING              RCH IN MODEL TEST_TRANS       PACKAGE TEST_TRANS      CONNECTED TO MODEL TEST_TRANS       PACKAGE RCHA             ON UNIT   1018 AT TIME STEP      4, STRESS PERIOD      7
 UBDSV06 SAVING              CHD IN MODEL TEST_TRANS       PACKAGE TEST_TRANS      CONNECTED TO MODEL TEST_TRANS       PACKAGE CHD              ON UNIT   1018 AT TIME STEP      4, STRESS PERIOD      7

 HEAD WILL BE SAVED ON UNIT 1019 AT END OF TIME STEP    4, STRESS PERIOD    7
 UBDSV1 SAVING           STO-SS ON UNIT   1018 AT TIME STEP      5, STRESS PERIOD      7
 UBDSV1 SAVING           STO-SY ON UNIT   1018 AT TIME STEP      5, STRESS PERIOD      7
 UBDSV1 SAVING     FLOW-JA-FACE ON UNIT   1018 AT TIME STEP      5, STRESS PERIOD      7
 UBDSV06 SAVING              RCH IN MODEL TEST_TRANS       PACKAGE TEST_TRANS      CONNECTED TO MODEL TEST_TRANS       PACKAGE RCHA             ON UNIT   1018 AT TIME STEP      5, STRESS PERIOD      7
 UBDSV06 SAVING              CHD IN MODEL TEST_TRANS       PACKAGE TEST_TRANS      CONNECTED TO MODEL TEST_TRANS       PACKAGE CHD              ON UNIT   1018 AT TIME STEP      5, STRESS PERIOD      7

 HEAD WILL BE SAVED ON UNIT 1019 AT END OF TIME STEP    5, STRESS PERIOD    7
 UBDSV1 SAVING           STO-SS ON UNIT   1018 AT TIME STEP      6, STRESS PERIOD      7
 UBDSV1 SAVING           STO-SY ON UNIT   1018 AT TIME STEP      6, STRESS PERIOD      7
 UBDSV1 SAVING     FLOW-JA-FACE ON UNIT   1018 AT TIME STEP      6, STRESS PERIOD      7
 UBDSV06 SAVING              RCH IN MODEL TEST_TRANS       PACKAGE TEST_TRANS      CONNECTED TO MODEL TEST_TRANS       PACKAGE RCHA             ON UNIT   1018 AT TIME STEP      6, STRESS PERIOD      7
 UBDSV06 SAVING              CHD IN MODEL TEST_TRANS       PACKAGE TEST_TRANS      CONNECTED TO MODEL TEST_TRANS       PACKAGE CHD              ON UNIT   1018 AT TIME STEP      6, STRESS PERIOD      7

 HEAD WILL BE SAVED ON UNIT 1019 AT END OF TIME STEP    6, STRESS PERIOD    7
 UBDSV1 SAVING           STO-SS ON UNIT   1018 AT TIME STEP      7, STRESS PERIOD      7
 UBDSV1 SAVING           STO-SY ON UNIT   1018 AT TIME STEP      7, STRESS PERIOD      7
 UBDSV1 SAVING     FLOW-JA-FACE ON UNIT   1018 AT TIME STEP      7, STRESS PERIOD      7
 UBDSV06 SAVING              RCH IN MODEL TEST_TRANS       PACKAGE TEST_TRANS      CONNECTED TO MODEL TEST_TRANS       PACKAGE RCHA             ON UNIT   1018 AT TIME STEP      7, STRESS PERIOD      7
 UBDSV06 SAVING              CHD IN MODEL TEST_TRANS       PACKAGE TEST_TRANS      CONNECTED TO MODEL TEST_TRANS       PACKAGE CHD              ON UNIT   1018 AT TIME STEP      7, STRESS PERIOD      7

 HEAD WILL BE SAVED ON UNIT 1019 AT END OF TIME STEP    7, STRESS PERIOD    7
 UBDSV1 SAVING           STO-SS ON UNIT   1018 AT TIME STEP      8, STRESS PERIOD      7
 UBDSV1 SAVING           STO-SY ON UNIT   1018 AT TIME STEP      8, STRESS PERIOD      7
 UBDSV1 SAVING     FLOW-JA-FACE ON UNIT   1018 AT TIME STEP      8, STRESS PERIOD      7
 UBDSV06 SAVING              RCH IN MODEL TEST_TRANS       PACKAGE TEST_TRANS      CONNECTED TO MODEL TEST_TRANS       PACKAGE RCHA             ON UNIT   1018 AT TIME STEP      8, STRESS PERIOD      7
 UBDSV06 SAVING              CHD IN MODEL TEST_TRANS       PACKAGE TEST_TRANS      CONNECTED TO MODEL TEST_TRANS       PACKAGE CHD              ON UNIT   1018 AT TIME STEP      8, STRESS PERIOD      7

 HEAD WILL BE SAVED ON UNIT 1019 AT END OF TIME STEP    8, STRESS PERIOD    7
 UBDSV1 SAVING           STO-SS ON UNIT   1018 AT TIME STEP      9, STRESS PERIOD      7
 UBDSV1 SAVING           STO-SY ON UNIT   1018 AT TIME STEP      9, STRESS PERIOD      7
 UBDSV1 SAVING     FLOW-JA-FACE ON UNIT   1018 AT TIME STEP      9, STRESS PERIOD      7
 UBDSV06 SAVING              RCH IN MODEL TEST_TRANS       PACKAGE TEST_TRANS      CONNECTED TO MODEL TEST_TRANS       PACKAGE RCHA             ON UNIT   1018 AT TIME STEP      9, STRESS PERIOD      7
 UBDSV06 SAVING              CHD IN MODEL TEST_TRANS       PACKAGE TEST_TRANS      CONNECTED TO MODEL TEST_TRANS       PACKAGE CHD              ON UNIT   1018 AT TIME STEP      9, STRESS PERIOD      7

 HEAD WILL BE SAVED ON UNIT 1019 AT END OF TIME STEP    9, STRESS PERIOD    7
 UBDSV1 SAVING           STO-SS ON UNIT   1018 AT TIME STEP     10, STRESS PERIOD      7
 UBDSV1 SAVING           STO-SY ON UNIT   1018 AT TIME STEP     10, STRESS PERIOD      7
 UBDSV1 SAVING     FLOW-JA-FACE ON UNIT   1018 AT TIME STEP     10, STRESS PERIOD      7
 UBDSV06 SAVING              RCH IN MODEL TEST_TRANS       PACKAGE TEST_TRANS      CONNECTED TO MODEL TEST_TRANS       PACKAGE RCHA             ON UNIT   1018 AT TIME STEP     10, STRESS PERIOD      7
 UBDSV06 SAVING              CHD IN MODEL TEST_TRANS       PACKAGE TEST_TRANS      CONNECTED TO MODEL TEST_TRANS       PACKAGE CHD              ON UNIT   1018 AT TIME STEP     10, STRESS PERIOD      7
1
  HEAD IN LAYER   1 AT END OF TIME STEP  10 IN STRESS PERIOD    7
  ---------------------------------------------------------------------------

                1               2               3               4               5               6               7               8               9              10
               11              12              13              14              15              16              17              18              19              20
               21              22              23              24              25              26              27              28              29              30
 ................................................................................................................................................................
   1      27.6476         27.6439         27.6364         27.6253         27.6104         27.5920         27.5701         27.5447         27.5159         27.4839    
          27.4489         27.4110         27.3703         27.3272         27.2818         27.2344         27.1853         27.1347         27.0830         27.0304    
          26.9772         26.9235         26.8696         26.8155         26.7612         26.7066         26.6513         26.5951         26.5373         26.4774    
   2      27.6476         27.6439         27.6364         27.6253         27.6104         27.5920         27.5701         27.5447         27.5159         27.4839    
          27.4489         27.4110         27.3703         27.3272         27.2818         27.2344         27.1853         27.1347         27.0830         27.0304    
          26.9772         26.9235         26.8696         26.8155         26.7612         26.7066         26.6513         26.5951         26.5373         26.4774    
   3      27.6476         27.6439         27.6364         27.6253         27.6105         27.5920         27.5701         27.5447         27.5159         27.4839    
          27.4489         27.4110         27.3703         27.3272         27.2818         27.2344         27.1853         27.1347         27.0830         27.0304    
          26.9772         26.9235         26.8696         26.8155         26.7612         26.7066         26.6513         26.5951         26.5373         26.4774    
   4      27.6476         27.6439         27.6364         27.6253         27.6105         27.5920         27.5701         27.5447         27.5159         27.4839    
          27.4489         27.4110         27.3703         27.3272         27.2818         27.2344         27.1853         27.1347         27.0830         27.0304    
          26.9772         26.9235         26.8696         26.8155         26.7612         26.7066         26.6513         26.5951         26.5373         26.4774    
   5      27.6476         27.6439         27.6364         27.6253         27.6105         27.5920         27.5701         27.5447         27.5159         27.4839    
          27.4489         27.4110         27.3703         27.3272         27.2818         27.2344         27.1853         27.1347         27.0830         27.0304    
          26.9772         26.9235         26.8696         26.8155         26.7612         26.7066         26.6513         26.5951         26.5373         26.4774    
   6      27.6476         27.6439         27.6364         27.6253         27.6105         27.5920         27.5701         27.5447         27.5159         27.4839    
          27.4489         27.4110         27.3703         27.3272         27.2818         27.2344         27.1853         27.1347         27.0830         27.0304    
          26.9772         26.9235         26.8696         26.8155         26.7612         26.7066         26.6513         26.5951         26.5373         26.4774    
   7      27.6476         27.6439         27.6364         27.6253         27.6105         27.5920         27.5701         27.5447         27.5159         27.4839    
          27.4489         27.4110         27.3703         27.3272         27.2818         27.2344         27.1853         27.1347         27.0830         27.0304    
          26.9772         26.9235         26.8696         26.8155         26.7612         26.7066         26.6513         26.5951         26.5373         26.4774    
   8      27.6476         27.6439         27.6364         27.6253         27.6105         27.5920         27.5701         27.5447         27.5159         27.4839    
          27.4489         27.4110         27.3703         27.3272         27.2818         27.2344         27.1853         27.1347         27.0830         27.0304    
          26.9772         26.9235         26.8696         26.8155         26.7612         26.7066         26.6513         26.5951         26.5373         26.4774    
   9      27.6476         27.6439         27.6364         27.6253         27.6105         27.5920         27.5701         27.5447         27.5159         27.4839    
          27.4489         27.4110         27.3703         27.3272         27.2818         27.2344         27.1853         27.1347         27.0830         27.0304    
          26.9772         26.9235         26.8696         26.8155         26.7612         26.7066         26.6513         26.5951         26.5373         26.4774    
  10      27.6476         27.6439         27.6364         27.6253         27.6105         27.5920         27.5701         27.5447         27.5159         27.4839    
          27.4489         27.4110         27.3703         27.3272         27.2818         27.2344         27.1853         27.1347         27.0830         27.0304    
          26.9772         26.9235         26.8696         26.8155         26.7612         26.7066         26.6513         26.5951         26.5373         26.4774    
  11      27.6476         27.6439         27.6364         27.6253         27.6105         27.5920         27.5701         27.5447         27.5159         27.4839    
          27.4489         27.4110         27.3703         27.3272         27.2818         27.2344         27.1853         27.1347         27.0830         27.0304    
          26.9772         26.9235         26.8696         26.8155         26.7612         26.7066         26.6513         26.5951         26.5373         26.4774    
  12      27.6476         27.6439         27.6364         27.6253         27.6105         27.5920         27.5701         27.5447         27.5159         27.4839    
          27.4489         27.4110         27.3703         27.3272         27.2818         27.2344         27.1853         27.1347         27.0830         27.0304    
          26.9772         26.9235         26.8696         26.8155         26.7612         26.7066         26.6513         26.5951         26.5373         26.4774    
  13      27.6476         27.6439         27.6364         27.6253         27.6105         27.5920         27.5701         27.5447         27.5159         27.4839    
          27.4489         27.4110         27.3703         27.3272         27.2818         27.2344         27.1853         27.1347         27.0830         27.0304    
          26.9772         26.9235         26.8696         26.8155         26.7612         26.7066         26.6513         26.5951         26.5373         26.4774    
  14      27.6476         27.6439         27.6364         27.6253         27.6105         27.5920         27.5701         27.5447         27.5159         27.4839    
          27.4489         27.4110         27.3703         27.3272         27.2818         27.2344         27.1853         27.1347         27.0830         27.0304    
          26.9772         26.9235         26.8696         26.8155         26.7612         26.7066         26.6513         26.5951         26.5373         26.4774    
  15      27.6476         27.6439         27.6364         27.6253         27.6105         27.5920         27.5701         27.5447         27.5159         27.4839    
          27.4489         27.4110         27.3703         27.3272         27.2818         27.2344         27.1853         27.1347         27.0830         27.0304    
          26.9772         26.9235         26.8696         26.8155         26.7612         26.7066         26.6513         26.5951         26.5373         26.4774    
  16      27.6476         27.6439         27.6364         27.6253         27.6105         27.5920         27.5701         27.5447         27.5159         27.4839    
          27.4489         27.4110         27.3703         27.3272         27.2818         27.2344         27.1853         27.1347         27.0830         27.0304    
          26.9772         26.9235         26.8696         26.8155         26.7612         26.7066         26.6513         26.5951         26.5373         26.4774    
  17      27.6476         27.6439         27.6364         27.6253         27.6105         27.5920         27.5701         27.5447         27.5159         27.4839    
          27.4489         27.4110         27.3703         27.3272         27.2818         27.2344         27.1853         27.1347         27.0830         27.0304    
          26.9772         26.9235         26.8696         26.8155         26.7612         26.7066         26.6513         26.5951         26.5373         26.4774    
  18      27.6476         27.6439         27.6364         27.6253         27.6105         27.5920         27.5701         27.5447         27.5159         27.4839    
          27.4489         27.4110         27.3703         27.3272         27.2818         27.2344         27.1853         27.1347         27.0830         27.0304    
          26.9772         26.9235         26.8696         26.8155         26.7612         26.7066         26.6513         26.5951         26.5373         26.4774    
  19      27.6476         27.6439         27.6364         27.6253         27.6105         27.5920         27.5701         27.5447         27.5159         27.4839    
          27.4489         27.4110         27.3703         27.3272         27.2818         27.2344         27.1853         27.1347         27.0830         27.0304    
          26.9772         26.9235         26.8696         26.8155         26.7612         26.7066         26.6513         26.5951         26.5373         26.4774    
  20      27.6476         27.6439         27.6364         27.6253         27.6105         27.5920         27.5701         27.5447         27.5159         27.4839    
          27.4489         27.4110         27.3703         27.3272         27.2818         27.2344         27.1853         27.1347         27.0830         27.0304    
          26.9772         26.9235         26.8696         26.8155         26.7612         26.7066         26.6513         26.5951         26.5373         26.4774    
  21      27.6476         27.6439         27.6364         27.6253         27.6105         27.5920         27.5701         27.5447         27.5159         27.4839    
          27.4489         27.4110         27.3703         27.3272         27.2818         27.2344         27.1853         27.1347         27.0830         27.0304    
          26.9772         26.9235         26.8696         26.8155         26.7612         26.7066         26.6513         26.5951         26.5373         26.4774    
  22      27.6476         27.6439         27.6364         27.6253         27.6105         27.5920         27.5701         27.5447         27.5159         27.4839    
          27.4489         27.4110         27.3703         27.3272         27.2818         27.2344         27.1853         27.1347         27.0830         27.0304    
          26.9772         26.9235         26.8696         26.8155         26.7612         26.7066         26.6513         26.5951         26.5373         26.4774    
  23      27.6476         27.6439         27.6364         27.6253         27.6105         27.5920         27.5701         27.5447         27.5159         27.4839    
          27.4489         27.4110         27.3703         27.3272         27.2818         27.2344         27.1853         27.1347         27.0830         27.0304    
          26.9772         26.9235         26.8696         26.8155         26.7612         26.7066         26.6513         26.5951         26.5373         26.4774    
  24      27.6476         27.6439         27.6364         27.6253         27.6105         27.5920         27.5701         27.5447         27.5159         27.4839    
          27.4489         27.4110         27.3703         27.3272         27.2818         27.2344         27.1853         27.1347         27.0830         27.0304    
          26.9772         26.9235         26.8696         26.8155         26.7612         26.7066         26.6513         26.5951         26.5373         26.4774    
  25      27.6476         27.6439         27.6364         27.6253         27.6105         27.5920         27.5701         27.5447         27.5159         27.4839    
          27.4489         27.4110         27.3703         27.3272         27.2818         27.2344         27.1853         27.1347         27.0830         27.0304    
          26.9772         26.9235         26.8696         26.8155         26.7612         26.7066         26.6513         26.5951         26.5373         26.4774    
  26      27.6476         27.6439         27.6364         27.6253         27.6105         27.5920         27.5701         27.5447         27.5159         27.4839    
          27.4489         27.4110         27.3703         27.3272         27.2818         27.2344         27.1853         27.1347         27.0830         27.0304    
          26.9772         26.9235         26.8696         26.8155         26.7612         26.7066         26.6513         26.5951         26.5373         26.4774    
  27      27.6476         27.6439         27.6364         27.6253         27.6105         27.5920         27.5701         27.5447         27.5159         27.4839    
          27.4489         27.4110         27.3703         27.3272         27.2818         27.2344         27.1853         27.1347         27.0830         27.0304    
          26.9772         26.9235         26.8696         26.8155         26.7612         26.7066         26.6513         26.5951         26.5373         26.4774    
  28      27.6476         27.6439         27.6364         27.6253         27.6105         27.5920         27.5701         27.5447         27.5159         27.4839    
          27.4489         27.4110         27.3703         27.3272         27.2818         27.2344         27.1853         27.1347         27.0830         27.0304    
          26.9772         26.9235         26.8696         26.8155         26.7612         26.7066         26.6513         26.5951         26.5373         26.4774    
  29      27.6476         27.6439         27.6364         27.6253         27.6105         27.5920         27.5701         27.5447         27.5159         27.4839    
          27.4489         27.4110         27.3703         27.3272         27.2818         27.2344         27.1853         27.1347         27.0830         27.0304    
          26.9772         26.9235         26.8696         26.8155         26.7612         26.7066         26.6513         26.5951         26.5373         26.4774    
  30      27.6476         27.6439         27.6364         27.6253         27.6105         27.5920         27.5701         27.5447         27.5159         27.4839    
          27.4489         27.4110         27.3703         27.3272         27.2818         27.2344         27.1853         27.1347         27.0830         27.0304    
          26.9772         26.9235         26.8696         26.8155         26.7612         26.7066         26.6513         26.5951         26.5373         26.4774    

 HEAD WILL BE SAVED ON UNIT 1019 AT END OF TIME STEP   10, STRESS PERIOD    7


  VOLUME BUDGET FOR ENTIRE MODEL AT END OF TIME STEP   10, STRESS PERIOD   7
  ---------------------------------------------------------------------------------------------------

     CUMULATIVE VOLUME      L**3       RATES FOR THIS TIME STEP      L**3/T          PACKAGE NAME    
     ------------------                 ------------------------                     ----------------

           IN:                                      IN:
           ---                                      ---
              STO-SS =          13.0679                STO-SS =       4.4388E-02     STORAGE         
              STO-SY =        8081.7141                STO-SY =          27.6086     STORAGE         
                 RCH =       26338.3644                   RCH =          47.6712     RCHA            
                 CHD =         597.9608                   CHD =           0.0000     CHD             

            TOTAL IN =       35031.1072              TOTAL IN =          75.3242

          OUT:                                     OUT:
          ----                                     ----
              STO-SS =           8.6304                STO-SS =       3.1977E-02     STORAGE         
              STO-SY =        5782.1791                STO-SY =          20.8048     STORAGE         
                 RCH =           0.0000                   RCH =           0.0000     RCHA            
                 CHD =       29240.1213                   CHD =          54.4892     CHD             

           TOTAL OUT =       35030.9309             TOTAL OUT =          75.3260

            IN - OUT =           0.1763              IN - OUT =      -1.8390E-03

 PERCENT DISCREPANCY =           0.00     PERCENT DISCREPANCY =          -0.00




         TIME SUMMARY AT END OF TIME STEP   10 IN STRESS PERIOD    7
                    SECONDS     MINUTES      HOURS       DAYS        YEARS
                    -----------------------------------------------------------
   TIME STEP LENGTH 2.59200E+05  4320.0      72.000      3.0000     8.21355E-03
 STRESS PERIOD TIME 2.59200E+06  43200.      720.00      30.000     8.21355E-02
         TOTAL TIME 1.56384E+07 2.60640E+05  4344.0      181.00     0.49555    

 OUTPUT CONTROL FOR STRESS PERIOD 8 IS REPEATED USING SETTINGS FROM A PREVIOUS STRESS PERIOD.


 STRESS PERIOD 8 IS TRANSIENT


                 RECHARGE =  0.1095890E-02
 UBDSV1 SAVING           STO-SS ON UNIT   1018 AT TIME STEP      1, STRESS PERIOD      8
 UBDSV1 SAVING           STO-SY ON UNIT   1018 AT TIME STEP      1, STRESS PERIOD      8
 UBDSV1 SAVING     FLOW-JA-FACE ON UNIT   1018 AT TIME STEP      1, STRESS PERIOD      8
 UBDSV06 SAVING              RCH IN MODEL TEST_TRANS       PACKAGE TEST_TRANS      CONNECTED TO MODEL TEST_TRANS       PACKAGE RCHA             ON UNIT   1018 AT TIME STEP      1, STRESS PERIOD      8
 UBDSV06 SAVING              CHD IN MODEL TEST_TRANS       PACKAGE TEST_TRANS      CONNECTED TO MODEL TEST_TRANS       PACKAGE CHD              ON UNIT   1018 AT TIME STEP      1, STRESS PERIOD      8
1
  HEAD IN LAYER   1 AT END OF TIME STEP   1 IN STRESS PERIOD    8
  ---------------------------------------------------------------------------

                1               2               3               4               5               6               7               8               9              10
               11              12              13              14              15              16              17              18              19              20
               21              22              23              24              25              26              27              28              29              30
 ................................................................................................................................................................
   1      27.6424         27.6388         27.6316         27.6208         27.6065         27.5887         27.5675         27.5430         27.5153         27.4845    
          27.4507         27.4141         27.3748         27.3330         27.2889         27.2427         27.1945         27.1444         27.0923         27.0383    
          26.9819         26.9224         26.8585         26.7878         26.7066         26.6085         26.4822         26.3080         26.0478         25.6157    
   2      27.6424         27.6388         27.6316         27.6208         27.6065         27.5887         27.5675         27.5430         27.5153         27.4845    
          27.4507         27.4141         27.3748         27.3330         27.2889         27.2427         27.1945         27.1444         27.0923         27.0383    
          26.9819         26.9224         26.8585         26.7878         26.7066         26.6085         26.4822         26.3080         26.0478         25.6157    
   3      27.6424         27.6388         27.6316         27.6208         27.6065         27.5887         27.5675         27.5430         27.5153         27.4845    
          27.4507         27.4141         27.3748         27.3330         27.2889         27.2427         27.1945         27.1444         27.0923         27.0383    
          26.9819         26.9224         26.8585         26.7878         26.7066         26.6085         26.4822         26.3080         26.0478         25.6157    
   4      27.6424         27.6388         27.6316         27.6208         27.6065         27.5887         27.5675         27.5430         27.5153         27.4845    
          27.4507         27.4141         27.3748         27.3330         27.2889         27.2427         27.1945         27.1444         27.0923         27.0383    
          26.9819         26.9224         26.8585         26.7878         26.7066         26.6085         26.4822         26.3080         26.0478         25.6157    
   5      27.6424         27.6388         27.6316         27.6208         27.6065         27.5887         27.5675         27.5430         27.5153         27.4845    
          27.4507         27.4141         27.3748         27.3330         27.2889         27.2427         27.1945         27.1444         27.0923         27.0383    
          26.9819         26.9224         26.8585         26.7878         26.7066         26.6085         26.4822         26.3080         26.0478         25.6157    
   6      27.6424         27.6388         27.6316         27.6208         27.6065         27.5887         27.5675         27.5430         27.5153         27.4845    
          27.4507         27.4141         27.3748         27.3330         27.2889         27.2427         27.1945         27.1444         27.0923         27.0383    
          26.9819         26.9224         26.8585         26.7878         26.7066         26.6085         26.4822         26.3080         26.0478         25.6157    
   7      27.6424         27.6388         27.6316         27.6208         27.6065         27.5887         27.5675         27.5430         27.5153         27.4845    
          27.4507         27.4141         27.3748         27.3330         27.2889         27.2427         27.1945         27.1444         27.0923         27.0383    
          26.9819         26.9224         26.8585         26.7878         26.7066         26.6085         26.4822         26.3080         26.0478         25.6157    
   8      27.6424         27.6388         27.6316         27.6208         27.6065         27.5887         27.5675         27.5430         27.5153         27.4845    
          27.4507         27.4141         27.3748         27.3330         27.2889         27.2427         27.1945         27.1444         27.0923         27.0383    
          26.9819         26.9224         26.8585         26.7878         26.7066         26.6085         26.4822         26.3080         26.0478         25.6157    
   9      27.6424         27.6388         27.6316         27.6208         27.6065         27.5887         27.5675         27.5430         27.5153         27.4845    
          27.4507         27.4141         27.3748         27.3330         27.2889         27.2427         27.1945         27.1444         27.0923         27.0383    
          26.9819         26.9224         26.8585         26.7878         26.7066         26.6085         26.4822         26.3080         26.0478         25.6157    
  10      27.6424         27.6388         27.6316         27.6208         27.6065         27.5887         27.5675         27.5430         27.5153         27.4845    
          27.4507         27.4141         27.3748         27.3330         27.2889         27.2427         27.1945         27.1444         27.0923         27.0383    
          26.9819         26.9224         26.8585         26.7878         26.7066         26.6085         26.4822         26.3080         26.0478         25.6157    
  11      27.6424         27.6388         27.6316         27.6208         27.6065         27.5887         27.5675         27.5430         27.5153         27.4845    
          27.4507         27.4141         27.3748         27.3330         27.2889         27.2427         27.1945         27.1444         27.0923         27.0383    
          26.9819         26.9224         26.8585         26.7878         26.7066         26.6085         26.4822         26.3080         26.0478         25.6157    
  12      27.6424         27.6388         27.6316         27.6208         27.6065         27.5887         27.5675         27.5430         27.5153         27.4845    
          27.4507         27.4141         27.3748         27.3330         27.2889         27.2427         27.1945         27.1444         27.0923         27.0383    
          26.9819         26.9224         26.8585         26.7878         26.7066         26.6085         26.4822         26.3080         26.0478         25.6157    
  13      27.6424         27.6388         27.6316         27.6208         27.6065         27.5887         27.5675         27.5430         27.5153         27.4845    
          27.4507         27.4141         27.3748         27.3330         27.2889         27.2427         27.1945         27.1444         27.0923         27.0383    
          26.9819         26.9224         26.8585         26.7878         26.7066         26.6085         26.4822         26.3080         26.0478         25.6157    
  14      27.6424         27.6388         27.6316         27.6208         27.6065         27.5887         27.5675         27.5430         27.5153         27.4845    
          27.4507         27.4141         27.3748         27.3330         27.2889         27.2427         27.1945         27.1444         27.0923         27.0383    
          26.9819         26.9224         26.8585         26.7878         26.7066         26.6085         26.4822         26.3080         26.0478         25.6157    
  15      27.6424         27.6388         27.6316         27.6208         27.6065         27.5887         27.5675         27.5430         27.5153         27.4845    
          27.4507         27.4141         27.3748         27.3330         27.2889         27.2427         27.1945         27.1444         27.0923         27.0383    
          26.9819         26.9224         26.8585         26.7878         26.7066         26.6085         26.4822         26.3080         26.0478         25.6157    
  16      27.6424         27.6388         27.6316         27.6208         27.6065         27.5887         27.5675         27.5430         27.5153         27.4845    
          27.4507         27.4141         27.3748         27.3330         27.2889         27.2427         27.1945         27.1444         27.0923         27.0383    
          26.9819         26.9224         26.8585         26.7878         26.7066         26.6085         26.4822         26.3080         26.0478         25.6157    
  17      27.6424         27.6388         27.6316         27.6208         27.6065         27.5887         27.5675         27.5430         27.5153         27.4845    
          27.4507         27.4141         27.3748         27.3330         27.2889         27.2427         27.1945         27.1444         27.0923         27.0383    
          26.9819         26.9224         26.8585         26.7878         26.7066         26.6085         26.4822         26.3080         26.0478         25.6157    
  18      27.6424         27.6388         27.6316         27.6208         27.6065         27.5887         27.5675         27.5430         27.5153         27.4845    
          27.4507         27.4141         27.3748         27.3330         27.2889         27.2427         27.1945         27.1444         27.0923         27.0383    
          26.9819         26.9224         26.8585         26.7878         26.7066         26.6085         26.4822         26.3080         26.0478         25.6157    
  19      27.6424         27.6388         27.6316         27.6208         27.6065         27.5887         27.5675         27.5430         27.5153         27.4845    
          27.4507         27.4141         27.3748         27.3330         27.2889         27.2427         27.1945         27.1444         27.0923         27.0383    
          26.9819         26.9224         26.8585         26.7878         26.7066         26.6085         26.4822         26.3080         26.0478         25.6157    
  20      27.6424         27.6388         27.6316         27.6208         27.6065         27.5887         27.5675         27.5430         27.5153         27.4845    
          27.4507         27.4141         27.3748         27.3330         27.2889         27.2427         27.1945         27.1444         27.0923         27.0383    
          26.9819         26.9224         26.8585         26.7878         26.7066         26.6085         26.4822         26.3080         26.0478         25.6157    
  21      27.6424         27.6388         27.6316         27.6208         27.6065         27.5887         27.5675         27.5430         27.5153         27.4845    
          27.4507         27.4141         27.3748         27.3330         27.2889         27.2427         27.1945         27.1444         27.0923         27.0383    
          26.9819         26.9224         26.8585         26.7878         26.7066         26.6085         26.4822         26.3080         26.0478         25.6157    
  22      27.6424         27.6388         27.6316         27.6208         27.6065         27.5887         27.5675         27.5430         27.5153         27.4845    
          27.4507         27.4141         27.3748         27.3330         27.2889         27.2427         27.1945         27.1444         27.0923         27.0383    
          26.9819         26.9224         26.8585         26.7878         26.7066         26.6085         26.4822         26.3080         26.0478         25.6157    
  23      27.6424         27.6388         27.6316         27.6208         27.6065         27.5887         27.5675         27.5430         27.5153         27.4845    
          27.4507         27.4141         27.3748         27.3330         27.2889         27.2427         27.1945         27.1444         27.0923         27.0383    
          26.9819         26.9224         26.8585         26.7878         26.7066         26.6085         26.4822         26.3080         26.0478         25.6157    
  24      27.6424         27.6388         27.6316         27.6208         27.6065         27.5887         27.5675         27.5430         27.5153         27.4845    
          27.4507         27.4141         27.3748         27.3330         27.2889         27.2427         27.1945         27.1444         27.0924         27.0383    
          26.9819         26.9224         26.8585         26.7878         26.7066         26.6085         26.4822         26.3080         26.0478         25.6157    
  25      27.6424         27.6388         27.6316         27.6208         27.6065         27.5887         27.5675         27.5430         27.5153         27.4845    
          27.4507         27.4141         27.3748         27.3330         27.2889         27.2427         27.1945         27.1444         27.0924         27.0383    
          26.9819         26.9224         26.8585         26.7878         26.7066         26.6085         26.4822         26.3080         26.0478         25.6157    
  26      27.6424         27.6388         27.6316         27.6208         27.6065         27.5887         27.5675         27.5430         27.5153         27.4845    
          27.4507         27.4141         27.3748         27.3330         27.2889         27.2427         27.1945         27.1444         27.0924         27.0383    
          26.9819         26.9224         26.8585         26.7878         26.7066         26.6085         26.4822         26.3080         26.0478         25.6157    
  27      27.6424         27.6388         27.6316         27.6208         27.6065         27.5887         27.5675         27.5430         27.5153         27.4845    
          27.4507         27.4141         27.3748         27.3330         27.2889         27.2427         27.1945         27.1444         27.0924         27.0383    
          26.9819         26.9224         26.8585         26.7878         26.7066         26.6085         26.4822         26.3080         26.0478         25.6157    
  28      27.6424         27.6388         27.6316         27.6208         27.6065         27.5887         27.5675         27.5430         27.5153         27.4845    
          27.4507         27.4141         27.3748         27.3330         27.2889         27.2427         27.1945         27.1444         27.0924         27.0383    
          26.9819         26.9224         26.8585         26.7878         26.7066         26.6085         26.4822         26.3080         26.0478         25.6157    
  29      27.6424         27.6388         27.6316         27.6208         27.6065         27.5887         27.5675         27.5430         27.5153         27.4845    
          27.4507         27.4141         27.3748         27.3330         27.2889         27.2427         27.1945         27.1444         27.0924         27.0383    
          26.9819         26.9224         26.8585         26.7878         26.7066         26.6085         26.4822         26.3080         26.0478         25.6157    
  30      27.6424         27.6388         27.6316         27.6208         27.6065         27.5887         27.5675         27.5430         27.5153         27.4845    
          27.4507         27.4141         27.3748         27.3330         27.2889         27.2427         27.1945         27.1444         27.0923         27.0383    
          26.9819         26.9224         26.8585         26.7878         26.7066         26.6085         26.4822         26.3080         26.0478         25.6157    

 HEAD WILL BE SAVED ON UNIT 1019 AT END OF TIME STEP    1, STRESS PERIOD    8



         TIME SUMMARY AT END OF TIME STEP    1 IN STRESS PERIOD    8
                    SECONDS     MINUTES      HOURS       DAYS        YEARS
                    -----------------------------------------------------------
   TIME STEP LENGTH 2.59200E+05  4320.0      72.000      3.0000     8.21355E-03
 STRESS PERIOD TIME 2.59200E+05  4320.0      72.000      3.0000     8.21355E-03
         TOTAL TIME 1.58976E+07 2.64960E+05  4416.0      184.00     0.50376    
 UBDSV1 SAVING           STO-SS ON UNIT   1018 AT TIME STEP      2, STRESS PERIOD      8
 UBDSV1 SAVING           STO-SY ON UNIT   1018 AT TIME STEP      2, STRESS PERIOD      8
 UBDSV1 SAVING     FLOW-JA-FACE ON UNIT   1018 AT TIME STEP      2, STRESS PERIOD      8
 UBDSV06 SAVING              RCH IN MODEL TEST_TRANS       PACKAGE TEST_TRANS      CONNECTED TO MODEL TEST_TRANS       PACKAGE RCHA             ON UNIT   1018 AT TIME STEP      2, STRESS PERIOD      8
 UBDSV06 SAVING              CHD IN MODEL TEST_TRANS       PACKAGE TEST_TRANS      CONNECTED TO MODEL TEST_TRANS       PACKAGE CHD              ON UNIT   1018 AT TIME STEP      2, STRESS PERIOD      8

 HEAD WILL BE SAVED ON UNIT 1019 AT END OF TIME STEP    2, STRESS PERIOD    8
 UBDSV1 SAVING           STO-SS ON UNIT   1018 AT TIME STEP      3, STRESS PERIOD      8
 UBDSV1 SAVING           STO-SY ON UNIT   1018 AT TIME STEP      3, STRESS PERIOD      8
 UBDSV1 SAVING     FLOW-JA-FACE ON UNIT   1018 AT TIME STEP      3, STRESS PERIOD      8
 UBDSV06 SAVING              RCH IN MODEL TEST_TRANS       PACKAGE TEST_TRANS      CONNECTED TO MODEL TEST_TRANS       PACKAGE RCHA             ON UNIT   1018 AT TIME STEP      3, STRESS PERIOD      8
 UBDSV06 SAVING              CHD IN MODEL TEST_TRANS       PACKAGE TEST_TRANS      CONNECTED TO MODEL TEST_TRANS       PACKAGE CHD              ON UNIT   1018 AT TIME STEP      3, STRESS PERIOD      8

 HEAD WILL BE SAVED ON UNIT 1019 AT END OF TIME STEP    3, STRESS PERIOD    8
 UBDSV1 SAVING           STO-SS ON UNIT   1018 AT TIME STEP      4, STRESS PERIOD      8
 UBDSV1 SAVING           STO-SY ON UNIT   1018 AT TIME STEP      4, STRESS PERIOD      8
 UBDSV1 SAVING     FLOW-JA-FACE ON UNIT   1018 AT TIME STEP      4, STRESS PERIOD      8
 UBDSV06 SAVING              RCH IN MODEL TEST_TRANS       PACKAGE TEST_TRANS      CONNECTED TO MODEL TEST_TRANS       PACKAGE RCHA             ON UNIT   1018 AT TIME STEP      4, STRESS PERIOD      8
 UBDSV06 SAVING              CHD IN MODEL TEST_TRANS       PACKAGE TEST_TRANS      CONNECTED TO MODEL TEST_TRANS       PACKAGE CHD              ON UNIT   1018 AT TIME STEP      4, STRESS PERIOD      8

 HEAD WILL BE SAVED ON UNIT 1019 AT END OF TIME STEP    4, STRESS PERIOD    8
 UBDSV1 SAVING           STO-SS ON UNIT   1018 AT TIME STEP      5, STRESS PERIOD      8
 UBDSV1 SAVING           STO-SY ON UNIT   1018 AT TIME STEP      5, STRESS PERIOD      8
 UBDSV1 SAVING     FLOW-JA-FACE ON UNIT   1018 AT TIME STEP      5, STRESS PERIOD      8
 UBDSV06 SAVING              RCH IN MODEL TEST_TRANS       PACKAGE TEST_TRANS      CONNECTED TO MODEL TEST_TRANS       PACKAGE RCHA             ON UNIT   1018 AT TIME STEP      5, STRESS PERIOD      8
 UBDSV06 SAVING              CHD IN MODEL TEST_TRANS       PACKAGE TEST_TRANS      CONNECTED TO MODEL TEST_TRANS       PACKAGE CHD              ON UNIT   1018 AT TIME STEP      5, STRESS PERIOD      8

 HEAD WILL BE SAVED ON UNIT 1019 AT END OF TIME STEP    5, STRESS PERIOD    8
 UBDSV1 SAVING           STO-SS ON UNIT   1018 AT TIME STEP      6, STRESS PERIOD      8
 UBDSV1 SAVING           STO-SY ON UNIT   1018 AT TIME STEP      6, STRESS PERIOD      8
 UBDSV1 SAVING     FLOW-JA-FACE ON UNIT   1018 AT TIME STEP      6, STRESS PERIOD      8
 UBDSV06 SAVING              RCH IN MODEL TEST_TRANS       PACKAGE TEST_TRANS      CONNECTED TO MODEL TEST_TRANS       PACKAGE RCHA             ON UNIT   1018 AT TIME STEP      6, STRESS PERIOD      8
 UBDSV06 SAVING              CHD IN MODEL TEST_TRANS       PACKAGE TEST_TRANS      CONNECTED TO MODEL TEST_TRANS       PACKAGE CHD              ON UNIT   1018 AT TIME STEP      6, STRESS PERIOD      8

 HEAD WILL BE SAVED ON UNIT 1019 AT END OF TIME STEP    6, STRESS PERIOD    8
 UBDSV1 SAVING           STO-SS ON UNIT   1018 AT TIME STEP      7, STRESS PERIOD      8
 UBDSV1 SAVING           STO-SY ON UNIT   1018 AT TIME STEP      7, STRESS PERIOD      8
 UBDSV1 SAVING     FLOW-JA-FACE ON UNIT   1018 AT TIME STEP      7, STRESS PERIOD      8
 UBDSV06 SAVING              RCH IN MODEL TEST_TRANS       PACKAGE TEST_TRANS      CONNECTED TO MODEL TEST_TRANS       PACKAGE RCHA             ON UNIT   1018 AT TIME STEP      7, STRESS PERIOD      8
 UBDSV06 SAVING              CHD IN MODEL TEST_TRANS       PACKAGE TEST_TRANS      CONNECTED TO MODEL TEST_TRANS       PACKAGE CHD              ON UNIT   1018 AT TIME STEP      7, STRESS PERIOD      8

 HEAD WILL BE SAVED ON UNIT 1019 AT END OF TIME STEP    7, STRESS PERIOD    8
 UBDSV1 SAVING           STO-SS ON UNIT   1018 AT TIME STEP      8, STRESS PERIOD      8
 UBDSV1 SAVING           STO-SY ON UNIT   1018 AT TIME STEP      8, STRESS PERIOD      8
 UBDSV1 SAVING     FLOW-JA-FACE ON UNIT   1018 AT TIME STEP      8, STRESS PERIOD      8
 UBDSV06 SAVING              RCH IN MODEL TEST_TRANS       PACKAGE TEST_TRANS      CONNECTED TO MODEL TEST_TRANS       PACKAGE RCHA             ON UNIT   1018 AT TIME STEP      8, STRESS PERIOD      8
 UBDSV06 SAVING              CHD IN MODEL TEST_TRANS       PACKAGE TEST_TRANS      CONNECTED TO MODEL TEST_TRANS       PACKAGE CHD              ON UNIT   1018 AT TIME STEP      8, STRESS PERIOD      8

 HEAD WILL BE SAVED ON UNIT 1019 AT END OF TIME STEP    8, STRESS PERIOD    8
 UBDSV1 SAVING           STO-SS ON UNIT   1018 AT TIME STEP      9, STRESS PERIOD      8
 UBDSV1 SAVING           STO-SY ON UNIT   1018 AT TIME STEP      9, STRESS PERIOD      8
 UBDSV1 SAVING     FLOW-JA-FACE ON UNIT   1018 AT TIME STEP      9, STRESS PERIOD      8
 UBDSV06 SAVING              RCH IN MODEL TEST_TRANS       PACKAGE TEST_TRANS      CONNECTED TO MODEL TEST_TRANS       PACKAGE RCHA             ON UNIT   1018 AT TIME STEP      9, STRESS PERIOD      8
 UBDSV06 SAVING              CHD IN MODEL TEST_TRANS       PACKAGE TEST_TRANS      CONNECTED TO MODEL TEST_TRANS       PACKAGE CHD              ON UNIT   1018 AT TIME STEP      9, STRESS PERIOD      8

 HEAD WILL BE SAVED ON UNIT 1019 AT END OF TIME STEP    9, STRESS PERIOD    8
 UBDSV1 SAVING           STO-SS ON UNIT   1018 AT TIME STEP     10, STRESS PERIOD      8
 UBDSV1 SAVING           STO-SY ON UNIT   1018 AT TIME STEP     10, STRESS PERIOD      8
 UBDSV1 SAVING     FLOW-JA-FACE ON UNIT   1018 AT TIME STEP     10, STRESS PERIOD      8
 UBDSV06 SAVING              RCH IN MODEL TEST_TRANS       PACKAGE TEST_TRANS      CONNECTED TO MODEL TEST_TRANS       PACKAGE RCHA             ON UNIT   1018 AT TIME STEP     10, STRESS PERIOD      8
 UBDSV06 SAVING              CHD IN MODEL TEST_TRANS       PACKAGE TEST_TRANS      CONNECTED TO MODEL TEST_TRANS       PACKAGE CHD              ON UNIT   1018 AT TIME STEP     10, STRESS PERIOD      8
1
  HEAD IN LAYER   1 AT END OF TIME STEP  10 IN STRESS PERIOD    8
  ---------------------------------------------------------------------------

                1               2               3               4               5               6               7               8               9              10
               11              12              13              14              15              16              17              18              19              20
               21              22              23              24              25              26              27              28              29              30
 ................................................................................................................................................................
   1      27.6163         27.6132         27.6069         27.5974         27.5847         27.5688         27.5496         27.5270         27.5009         27.4713    
          27.4380         27.4008         27.3595         27.3139         27.2638         27.2087         27.1485         27.0826         27.0106         26.9320    
          26.8462         26.7526         26.6505         26.5391         26.4175         26.2848         26.1398         25.9811         25.8072         25.6157    
   2      27.6163         27.6132         27.6069         27.5974         27.5847         27.5688         27.5496         27.5270         27.5009         27.4713    
          27.4380         27.4008         27.3595         27.3139         27.2638         27.2087         27.1485         27.0826         27.0106         26.9320    
          26.8462         26.7526         26.6505         26.5391         26.4175         26.2848         26.1398         25.9811         25.8071         25.6157    
   3      27.6163         27.6132         27.6069         27.5974         27.5847         27.5688         27.5496         27.5270         27.5009         27.4713    
          27.4380         27.4008         27.3595         27.3139         27.2638         27.2087         27.1485         27.0826         27.0106         26.9320    
          26.8462         26.7526         26.6505         26.5391         26.4175         26.2848         26.1398         25.9811         25.8071         25.6157    
   4      27.6163         27.6132         27.6069         27.5974         27.5847         27.5688         27.5496         27.5270         27.5009         27.4713    
          27.4380         27.4008         27.3595         27.3139         27.2638         27.2087         27.1485         27.0826         27.0106         26.9320    
          26.8462         26.7526         26.6505         26.5391         26.4175         26.2848         26.1398         25.9811         25.8071         25.6157    
   5      27.6163         27.6132         27.6069         27.5974         27.5847         27.5688         27.5496         27.5270         27.5009         27.4713    
          27.4380         27.4008         27.3595         27.3139         27.2638         27.2087         27.1485         27.0826         27.0106         26.9320    
          26.8462         26.7526         26.6505         26.5391         26.4175         26.2848         26.1398         25.9811         25.8072         25.6157    
   6      27.6163         27.6132         27.6069         27.5974         27.5847         27.5688         27.5496         27.5270         27.5009         27.4713    
          27.4380         27.4008         27.3595         27.3139         27.2638         27.2087         27.1485         27.0826         27.0106         26.9320    
          26.8462         26.7526         26.6505         26.5391         26.4175         26.2848         26.1398         25.9811         25.8072         25.6157    
   7      27.6163         27.6132         27.6069         27.5974         27.5847         27.5688         27.5496         27.5270         27.5009         27.4713    
          27.4380         27.4008         27.3595         27.3139         27.2638         27.2087         27.1485         27.0826         27.0106         26.9320    
          26.8462         26.7526         26.6505         26.5391         26.4175         26.2848         26.1398         25.9811         25.8072         25.6157    
   8      27.6163         27.6132         27.6069         27.5974         27.5847         27.5688         27.5496         27.5270         27.5009         27.4713    
          27.4380         27.4008         27.3595         27.3139         27.2638         27.2087         27.1485         27.0826         27.0106         26.9320    
          26.8462         26.7526         26.6505         26.5391         26.4175         26.2848         26.1398         25.9811         25.8072         25.6157    
   9      27.6163         27.6132         27.6069         27.5974         27.5847         27.5688         27.5496         27.5270         27.5009         27.4713    
          27.4380         27.4008         27.3595         27.3139         27.2638         27.2087         27.1485         27.0826         27.0106         26.9320    
          26.8462         26.7526         26.6505         26.5391         26.4175         26.2848         26.1398         25.9811         25.8072         25.6157    
  10      27.6163         27.6132         27.6069         27.5974         27.5847         27.5688         27.5496         27.5270         27.5009         27.4713    
          27.4380         27.4008         27.3595         27.3139         27.2638         27.2087         27.1485         27.0826         27.0106         26.9320    
          26.8462         26.7526         26.6505         26.5391         26.4175         26.2848         26.1398         25.9811         25.8072         25.6157    
  11      27.6163         27.6132         27.6069         27.5974         27.5847         27.5688         27.5496         27.5270         27.5009         27.4713    
          27.4380         27.4008         27.3595         27.3139         27.2638         27.2087         27.1485         27.0826         27.0106         26.9320    
          26.8462         26.7526         26.6505         26.5391         26.4175         26.2848         26.1398         25.9811         25.8072         25.6157    
  12      27.6163         27.6132         27.6069         27.5974         27.5847         27.5688         27.5496         27.5270         27.5009         27.4713    
          27.4380         27.4008         27.3595         27.3139         27.2638         27.2087         27.1485         27.0826         27.0106         26.9320    
          26.8462         26.7526         26.6505         26.5391         26.4175         26.2848         26.1398         25.9811         25.8072         25.6157    
  13      27.6163         27.6132         27.6069         27.5974         27.5847         27.5688         27.5496         27.5270         27.5009         27.4713    
          27.4380         27.4008         27.3595         27.3139         27.2638         27.2087         27.1485         27.0826         27.0106         26.9320    
          26.8462         26.7526         26.6505         26.5391         26.4175         26.2848         26.1398         25.9811         25.8072         25.6157    
  14      27.6163         27.6132         27.6069         27.5974         27.5847         27.5688         27.5496         27.5270         27.5009         27.4713    
          27.4380         27.4008         27.3595         27.3139         27.2638         27.2087         27.1485         27.0826         27.0106         26.9320    
          26.8462         26.7526         26.6505         26.5391         26.4175         26.2848         26.1398         25.9811         25.8072         25.6157    
  15      27.6163         27.6132         27.6069         27.5974         27.5847         27.5688         27.5496         27.5270         27.5009         27.4713    
          27.4380         27.4008         27.3595         27.3139         27.2638         27.2087         27.1485         27.0826         27.0106         26.9320    
          26.8462         26.7526         26.6505         26.5391         26.4175         26.2848         26.1398         25.9811         25.8072         25.6157    
  16      27.6163         27.6132         27.6069         27.5974         27.5847         27.5688         27.5496         27.5270         27.5009         27.4713    
          27.4380         27.4008         27.3595         27.3139         27.2638         27.2087         27.1485         27.0826         27.0106         26.9320    
          26.8462         26.7526         26.6505         26.5391         26.4175         26.2848         26.1398         25.9811         25.8072         25.6157    
  17      27.6163         27.6132         27.6069         27.5974         27.5847         27.5688         27.5496         27.5270         27.5009         27.4713    
          27.4380         27.4008         27.3595         27.3139         27.2638         27.2087         27.1485         27.0826         27.0106         26.9320    
          26.8462         26.7526         26.6505         26.5391         26.4175         26.2848         26.1398         25.9811         25.8072         25.6157    
  18      27.6163         27.6132         27.6069         27.5974         27.5847         27.5688         27.5496         27.5270         27.5009         27.4713    
          27.4380         27.4008         27.3595         27.3139         27.2638         27.2087         27.1485         27.0826         27.0106         26.9320    
          26.8462         26.7526         26.6505         26.5391         26.4175         26.2848         26.1398         25.9811         25.8072         25.6157    
  19      27.6163         27.6132         27.6069         27.5974         27.5847         27.5688         27.5496         27.5270         27.5009         27.4713    
          27.4380         27.4008         27.3595         27.3139         27.2638         27.2087         27.1485         27.0826         27.0106         26.9320    
          26.8462         26.7526         26.6505         26.5391         26.4175         26.2848         26.1398         25.9811         25.8072         25.6157    
  20      27.6163         27.6132         27.6069         27.5974         27.5847         27.5688         27.5496         27.5270         27.5009         27.4713    
          27.4380         27.4008         27.3595         27.3139         27.2638         27.2087         27.1485         27.0826         27.0106         26.9320    
          26.8462         26.7526         26.6505         26.5391         26.4175         26.2848         26.1398         25.9811         25.8072         25.6157    
  21      27.6163         27.6132         27.6069         27.5974         27.5847         27.5688         27.5496         27.5270         27.5009         27.4713    
          27.4380         27.4008         27.3595         27.3139         27.2638         27.2087         27.1485         27.0826         27.0106         26.9320    
          26.8462         26.7526         26.6505         26.5391         26.4175         26.2848         26.1398         25.9811         25.8072         25.6157    
  22      27.6163         27.6132         27.6069         27.5974         27.5847         27.5688         27.5496         27.5270         27.5009         27.4713    
          27.4380         27.4008         27.3595         27.3139         27.2638         27.2087         27.1485         27.0826         27.0106         26.9320    
          26.8462         26.7526         26.6505         26.5391         26.4175         26.2848         26.1398         25.9811         25.8072         25.6157    
  23      27.6163         27.6132         27.6069         27.5974         27.5847         27.5688         27.5496         27.5270         27.5010         27.4713    
          27.4380         27.4008         27.3595         27.3139         27.2638         27.2087         27.1485         27.0826         27.0106         26.9320    
          26.8462         26.7526         26.6505         26.5391         26.4175         26.2848         26.1398         25.9811         25.8072         25.6157    
  24      27.6163         27.6132         27.6069         27.5974         27.5847         27.5688         27.5496         27.5270         27.5010         27.4713    
          27.4380         27.4008         27.3595         27.3139         27.2638         27.2087         27.1485         27.0826         27.0106         26.9320    
          26.8462         26.7526         26.6505         26.5391         26.4175         26.2848         26.1398         25.9811         25.8072         25.6157    
  25      27.6163         27.6132         27.6069         27.5974         27.5847         27.5688         27.5496         27.5270         27.5010         27.4713    
          27.4380         27.4008         27.3595         27.3139         27.2638         27.2087         27.1485         27.0826         27.0106         26.9320    
          26.8462         26.7526         26.6505         26.5391         26.4175         26.2848         26.1398         25.9811         25.8072         25.6157    
  26      27.6163         27.6132         27.6069         27.5974         27.5847         27.5688         27.5496         27.5270         27.5009         27.4713    
          27.4380         27.4008         27.3595         27.3139         27.2638         27.2087         27.1485         27.0826         27.0106         26.9320    
          26.8462         26.7526         26.6505         26.5391         26.4175         26.2848         26.1398         25.9811         25.8072         25.6157    
  27      27.6163         27.6132         27.6069         27.5974         27.5847         27.5688         27.5496         27.5270         27.5009         27.4713    
          27.4380         27.4008         27.3595         27.3139         27.2638         27.2087         27.1485         27.0826         27.0106         26.9320    
          26.8462         26.7526         26.6505         26.5391         26.4175         26.2848         26.1398         25.9811         25.8072         25.6157    
  28      27.6163         27.6132         27.6069         27.5974         27.5847         27.5688         27.5496         27.5270         27.5009         27.4713    
          27.4380         27.4008         27.3595         27.3139         27.2638         27.2087         27.1485         27.0826         27.0106         26.9320    
          26.8462         26.7526         26.6505         26.5391         26.4175         26.2848         26.1398         25.9811         25.8072         25.6157    
  29      27.6163         27.6132         27.6069         27.5974         27.5847         27.5688         27.5496         27.5270         27.5009         27.4713    
          27.4380         27.4008         27.3595         27.3139         27.2638         27.2087         27.1485         27.0826         27.0106         26.9320    
          26.8462         26.7526         26.6505         26.5391         26.4175         26.2848         26.1398         25.9811         25.8072         25.6157    
  30      27.6163         27.6132         27.6069         27.5974         27.5847         27.5688         27.5496         27.5270         27.5009         27.4713    
          27.4380         27.4008         27.3595         27.3139         27.2638         27.2087         27.1485         27.0826         27.0106         26.9320    
          26.8462         26.7526         26.6505         26.5391         26.4175         26.2848         26.1398         25.9811         25.8072         25.6157    

 HEAD WILL BE SAVED ON UNIT 1019 AT END OF TIME STEP   10, STRESS PERIOD    8


  VOLUME BUDGET FOR ENTIRE MODEL AT END OF TIME STEP   10, STRESS PERIOD   8
  ---------------------------------------------------------------------------------------------------

     CUMULATIVE VOLUME      L**3       RATES FOR THIS TIME STEP      L**3/T          PACKAGE NAME    
     ------------------                 ------------------------                     ----------------

           IN:                                      IN:
           ---                                      ---
              STO-SS =          16.8003                STO-SS =       6.0066E-02     STORAGE         
              STO-SY =       10554.6877                STO-SY =          39.0062     STORAGE         
                 RCH =       29198.6373                   RCH =          95.3424     RCHA            
                 CHD =         597.9608                   CHD =           0.0000     CHD             

            TOTAL IN =       40368.0861              TOTAL IN =         134.4087

          OUT:                                     OUT:
          ----                                     ----
              STO-SS =           8.7440                STO-SS =           0.0000     STORAGE         
              STO-SY =        5854.3616                STO-SY =           0.0000     STORAGE         
                 RCH =           0.0000                   RCH =           0.0000     RCHA            
                 CHD =       34504.6998                   CHD =         134.4043     CHD             

           TOTAL OUT =       40367.8054             TOTAL OUT =         134.4043

            IN - OUT =           0.2807              IN - OUT =       4.4196E-03

 PERCENT DISCREPANCY =           0.00     PERCENT DISCREPANCY =           0.00




         TIME SUMMARY AT END OF TIME STEP   10 IN STRESS PERIOD    8
                    SECONDS     MINUTES      HOURS       DAYS        YEARS
                    -----------------------------------------------------------
   TIME STEP LENGTH 2.59200E+05  4320.0      72.000      3.0000     8.21355E-03
 STRESS PERIOD TIME 2.59200E+06  43200.      720.00      30.000     8.21355E-02
         TOTAL TIME 1.82304E+07 3.03840E+05  5064.0      211.00     0.57769    

 OUTPUT CONTROL FOR STRESS PERIOD 9 IS REPEATED USING SETTINGS FROM A PREVIOUS STRESS PERIOD.


 STRESS PERIOD 9 IS TRANSIENT


                 RECHARGE =  0.1643840E-02
 UBDSV1 SAVING           STO-SS ON UNIT   1018 AT TIME STEP      1, STRESS PERIOD      9
 UBDSV1 SAVING           STO-SY ON UNIT   1018 AT TIME STEP      1, STRESS PERIOD      9
 UBDSV1 SAVING     FLOW-JA-FACE ON UNIT   1018 AT TIME STEP      1, STRESS PERIOD      9
 UBDSV06 SAVING              RCH IN MODEL TEST_TRANS       PACKAGE TEST_TRANS      CONNECTED TO MODEL TEST_TRANS       PACKAGE RCHA             ON UNIT   1018 AT TIME STEP      1, STRESS PERIOD      9
 UBDSV06 SAVING              CHD IN MODEL TEST_TRANS       PACKAGE TEST_TRANS      CONNECTED TO MODEL TEST_TRANS       PACKAGE CHD              ON UNIT   1018 AT TIME STEP      1, STRESS PERIOD      9
1
  HEAD IN LAYER   1 AT END OF TIME STEP   1 IN STRESS PERIOD    9
  ---------------------------------------------------------------------------

                1               2               3               4               5               6               7               8               9              10
               11              12              13              14              15              16              17              18              19              20
               21              22              23              24              25              26              27              28              29              30
 ................................................................................................................................................................
   1      27.6220         27.6188         27.6125         27.6029         27.5901         27.5740         27.5546         27.5317         27.5054         27.4753    
          27.4415         27.4038         27.3619         27.3156         27.2646         27.2087         27.1474         27.0803         27.0069         26.9266    
          26.8386         26.7418         26.6350         26.5161         26.3822         26.2284         26.0464         25.8205         25.5179         25.0550    
   2      27.6220         27.6188         27.6125         27.6029         27.5901         27.5740         27.5546         27.5317         27.5054         27.4753    
          27.4415         27.4038         27.3619         27.3156         27.2646         27.2087         27.1474         27.0803         27.0069         26.9266    
          26.8386         26.7418         26.6350         26.5161         26.3822         26.2284         26.0464         25.8205         25.5179         25.0550    
   3      27.6220         27.6188         27.6125         27.6029         27.5901         27.5740         27.5546         27.5317         27.5054         27.4753    
          27.4415         27.4038         27.3619         27.3156         27.2646         27.2087         27.1474         27.0803         27.0069         26.9266    
          26.8386         26.7418         26.6350         26.5161         26.3822         26.2284         26.0464         25.8205         25.5179         25.0550    
   4      27.6220         27.6188         27.6125         27.6029         27.5901         27.5740         27.5546         27.5317         27.5054         27.4753    
          27.4415         27.4038         27.3619         27.3156         27.2646         27.2087         27.1474         27.0803         27.0069         26.9266    
          26.8386         26.7418         26.6350         26.5161         26.3822         26.2284         26.0464         25.8205         25.5179         25.0550    
   5      27.6220         27.6188         27.6125         27.6029         27.5901         27.5740         27.5546         27.5317         27.5054         27.4753    
          27.4415         27.4038         27.3619         27.3156         27.2646         27.2087         27.1474         27.0803         27.0069         26.9266    
          26.8386         26.7418         26.6350         26.5161         26.3822         26.2284         26.0464         25.8205         25.5179         25.0550    
   6      27.6220         27.6188         27.6125         27.6029         27.5901         27.5740         27.5546         27.5317         27.5054         27.4753    
          27.4415         27.4038         27.3619         27.3156         27.2646         27.2087         27.1474         27.0803         27.0069         26.9266    
          26.8386         26.7418         26.6350         26.5161         26.3822         26.2284         26.0464         25.8205         25.5179         25.0550    
   7      27.6220         27.6188         27.6125         27.6029         27.5901         27.5740         27.5546         27.5317         27.5054         27.4753    
          27.4415         27.4038         27.3619         27.3156         27.2646         27.2087         27.1474         27.0803         27.0069         26.9266    
          26.8386         26.7418         26.6350         26.5161         26.3822         26.2284         26.0464         25.8205         25.5179         25.0550    
   8      27.6220         27.6188         27.6125         27.6029         27.5901         27.5740         27.5546         27.5317         27.5054         27.4753    
          27.4415         27.4038         27.3619         27.3156         27.2646         27.2087         27.1474         27.0803         27.0069         26.9266    
          26.8386         26.7418         26.6350         26.5161         26.3822         26.2284         26.0464         25.8205         25.5179         25.0550    
   9      27.6220         27.6188         27.6125         27.6029         27.5901         27.5740         27.5546         27.5317         27.5054         27.4753    
          27.4415         27.4038         27.3619         27.3156         27.2646         27.2087         27.1474         27.0803         27.0069         26.9266    
          26.8386         26.7418         26.6350         26.5161         26.3822         26.2284         26.0464         25.8205         25.5179         25.0550    
  10      27.6220         27.6188         27.6125         27.6029         27.5901         27.5740         27.5546         27.5317         27.5054         27.4753    
          27.4415         27.4038         27.3619         27.3156         27.2646         27.2087         27.1474         27.0803         27.0069         26.9266    
          26.8386         26.7418         26.6350         26.5161         26.3822         26.2284         26.0464         25.8205         25.5179         25.0550    
  11      27.6220         27.6188         27.6125         27.6029         27.5901         27.5740         27.5546         27.5317         27.5054         27.4753    
          27.4415         27.4038         27.3619         27.3156         27.2646         27.2087         27.1474         27.0803         27.0069         26.9266    
          26.8386         26.7418         26.6350         26.5161         26.3822         26.2284         26.0464         25.8205         25.5179         25.0550    
  12      27.6220         27.6188         27.6125         27.6029         27.5901         27.5740         27.5546         27.5317         27.5054         27.4753    
          27.4415         27.4038         27.3619         27.3156         27.2646         27.2087         27.1474         27.0803         27.0069         26.9266    
          26.8386         26.7418         26.6350         26.5161         26.3822         26.2284         26.0464         25.8205         25.5179         25.0550    
  13      27.6220         27.6188         27.6125         27.6029         27.5901         27.5740         27.5546         27.5317         27.5054         27.4753    
          27.4415         27.4038         27.3619         27.3156         27.2646         27.2087         27.1474         27.0803         27.0069         26.9266    
          26.8386         26.7418         26.6350         26.5161         26.3822         26.2284         26.0464         25.8205         25.5179         25.0550    
  14      27.6220         27.6188         27.6125         27.6029         27.5901         27.5740         27.5546         27.5317         27.5054         27.4753    
          27.4415         27.4038         27.3619         27.3156         27.2646         27.2087         27.1474         27.0803         27.0069         26.9266    
          26.8386         26.7418         26.6350         26.5161         26.3822         26.2284         26.0464         25.8205         25.5179         25.0550    
  15      27.6220         27.6188         27.6125         27.6029         27.5901         27.5740         27.5546         27.5317         27.5054         27.4753    
          27.4415         27.4038         27.3619         27.3156         27.2646         27.2087         27.1474         27.0803         27.0069         26.9266    
          26.8386         26.7418         26.6350         26.5161         26.3822         26.2284         26.0464         25.8205         25.5179         25.0550    
  16      27.6220         27.6188         27.6125         27.6029         27.5901         27.5740         27.5546         27.5317         27.5054         27.4753    
          27.4415         27.4038         27.3619         27.3156         27.2646         27.2087         27.1474         27.0803         27.0069         26.9266    
          26.8386         26.7418         26.6350         26.5161         26.3822         26.2284         26.0464         25.8205         25.5179         25.0550    
  17      27.6220         27.6188         27.6125         27.6029         27.5901         27.5740         27.5546         27.5317         27.5054         27.4753    
          27.4415         27.4038         27.3619         27.3156         27.2646         27.2087         27.1474         27.0803         27.0069         26.9266    
          26.8386         26.7418         26.6350         26.5161         26.3822         26.2284         26.0464         25.8205         25.5179         25.0550    
  18      27.6220         27.6188         27.6125         27.6029         27.5901         27.5740         27.5546         27.5317         27.5054         27.4753    
          27.4415         27.4038         27.3619         27.3156         27.2646         27.2087         27.1474         27.0803         27.0069         26.9266    
          26.8386         26.7418         26.6350         26.5161         26.3822         26.2284         26.0464         25.8205         25.5179         25.0550    
  19      27.6220         27.6188         27.6125         27.6029         27.5901         27.5740         27.5546         27.5317         27.5054         27.4753    
          27.4415         27.4038         27.3619         27.3156         27.2646         27.2087         27.1474         27.0803         27.0069         26.9266    
          26.8386         26.7418         26.6350         26.5161         26.3822         26.2284         26.0464         25.8205         25.5179         25.0550    
  20      27.6220         27.6188         27.6125         27.6029         27.5901         27.5740         27.5546         27.5317         27.5054         27.4753    
          27.4415         27.4038         27.3619         27.3156         27.2646         27.2087         27.1474         27.0803         27.0069         26.9266    
          26.8386         26.7418         26.6350         26.5161         26.3822         26.2284         26.0464         25.8205         25.5179         25.0550    
  21      27.6220         27.6188         27.6125         27.6029         27.5901         27.5740         27.5546         27.5317         27.5054         27.4753    
          27.4415         27.4038         27.3619         27.3156         27.2646         27.2087         27.1474         27.0803         27.0069         26.9266    
          26.8386         26.7418         26.6350         26.5161         26.3822         26.2284         26.0464         25.8205         25.5179         25.0550    
  22      27.6220         27.6188         27.6125         27.6029         27.5901         27.5740         27.5546         27.5317         27.5054         27.4753    
          27.4415         27.4038         27.3619         27.3156         27.2646         27.2087         27.1474         27.0803         27.0069         26.9266    
          26.8386         26.7418         26.6350         26.5161         26.3822         26.2284         26.0464         25.8205         25.5179         25.0550    
  23      27.6220         27.6188         27.6125         27.6029         27.5901         27.5740         27.5546         27.5317         27.5054         27.4753    
          27.4415         27.4038         27.3619         27.3156         27.2646         27.2087         27.1474         27.0803         27.0069         26.9266    
          26.8386         26.7418         26.6350         26.5161         26.3822         26.2284         26.0464         25.8205         25.5179         25.0550    
  24      27.6220         27.6188         27.6125         27.6029         27.5901         27.5740         27.5546         27.5317         27.5054         27.4754    
          27.4415         27.4038         27.3619         27.3156         27.2646         27.2087         27.1474         27.0803         27.0069         26.9266    
          26.8386         26.7418         26.6350         26.5161         26.3822         26.2284         26.0464         25.8205         25.5179         25.0550    
  25      27.6220         27.6188         27.6125         27.6029         27.5901         27.5740         27.5546         27.5317         27.5054         27.4754    
          27.4415         27.4038         27.3619         27.3156         27.2646         27.2087         27.1474         27.0803         27.0069         26.9266    
          26.8386         26.7418         26.6350         26.5161         26.3822         26.2284         26.0464         25.8205         25.5179         25.0550    
  26      27.6220         27.6188         27.6125         27.6029         27.5901         27.5740         27.5546         27.5317         27.5054         27.4754    
          27.4415         27.4038         27.3619         27.3156         27.2646         27.2087         27.1474         27.0803         27.0069         26.9266    
          26.8386         26.7418         26.6350         26.5161         26.3822         26.2284         26.0464         25.8205         25.5179         25.0550    
  27      27.6220         27.6188         27.6125         27.6029         27.5901         27.5740         27.5546         27.5317         27.5054         27.4753    
          27.4415         27.4038         27.3619         27.3156         27.2646         27.2087         27.1474         27.0803         27.0069         26.9266    
          26.8386         26.7418         26.6350         26.5161         26.3822         26.2284         26.0464         25.8205         25.5179         25.0550    
  28      27.6220         27.6188         27.6125         27.6029         27.5901         27.5740         27.5546         27.5317         27.5054         27.4753    
          27.4415         27.4038         27.3619         27.3156         27.2646         27.2087         27.1474         27.0803         27.0069         26.9266    
          26.8386         26.7418         26.6350         26.5161         26.3822         26.2284         26.0464         25.8205         25.5179         25.0550    
  29      27.6220         27.6188         27.6125         27.6029         27.5901         27.5740         27.5546         27.5317         27.5054         27.4753    
          27.4415         27.4038         27.3619         27.3156         27.2646         27.2087         27.1474         27.0803         27.0069         26.9266    
          26.8386         26.7418         26.6350         26.5161         26.3822         26.2284         26.0464         25.8205         25.5179         25.0550    
  30      27.6220         27.6188         27.6125         27.6029         27.5901         27.5740         27.5546         27.5317         27.5054         27.4753    
          27.4415         27.4038         27.3619         27.3156         27.2646         27.2087         27.1474         27.0803         27.0069         26.9266    
          26.8386         26.7418         26.6350         26.5161         26.3822         26.2284         26.0464         25.8205         25.5179         25.0550    

 HEAD WILL BE SAVED ON UNIT 1019 AT END OF TIME STEP    1, STRESS PERIOD    9



         TIME SUMMARY AT END OF TIME STEP    1 IN STRESS PERIOD    9
                    SECONDS     MINUTES      HOURS       DAYS        YEARS
                    -----------------------------------------------------------
   TIME STEP LENGTH 2.59200E+05  4320.0      72.000      3.0000     8.21355E-03
 STRESS PERIOD TIME 2.59200E+05  4320.0      72.000      3.0000     8.21355E-03
         TOTAL TIME 1.84896E+07 3.08160E+05  5136.0      214.00     0.58590    
 UBDSV1 SAVING           STO-SS ON UNIT   1018 AT TIME STEP      2, STRESS PERIOD      9
 UBDSV1 SAVING           STO-SY ON UNIT   1018 AT TIME STEP      2, STRESS PERIOD      9
 UBDSV1 SAVING     FLOW-JA-FACE ON UNIT   1018 AT TIME STEP      2, STRESS PERIOD      9
 UBDSV06 SAVING              RCH IN MODEL TEST_TRANS       PACKAGE TEST_TRANS      CONNECTED TO MODEL TEST_TRANS       PACKAGE RCHA             ON UNIT   1018 AT TIME STEP      2, STRESS PERIOD      9
 UBDSV06 SAVING              CHD IN MODEL TEST_TRANS       PACKAGE TEST_TRANS      CONNECTED TO MODEL TEST_TRANS       PACKAGE CHD              ON UNIT   1018 AT TIME STEP      2, STRESS PERIOD      9

 HEAD WILL BE SAVED ON UNIT 1019 AT END OF TIME STEP    2, STRESS PERIOD    9
 UBDSV1 SAVING           STO-SS ON UNIT   1018 AT TIME STEP      3, STRESS PERIOD      9
 UBDSV1 SAVING           STO-SY ON UNIT   1018 AT TIME STEP      3, STRESS PERIOD      9
 UBDSV1 SAVING     FLOW-JA-FACE ON UNIT   1018 AT TIME STEP      3, STRESS PERIOD      9
 UBDSV06 SAVING              RCH IN MODEL TEST_TRANS       PACKAGE TEST_TRANS      CONNECTED TO MODEL TEST_TRANS       PACKAGE RCHA             ON UNIT   1018 AT TIME STEP      3, STRESS PERIOD      9
 UBDSV06 SAVING              CHD IN MODEL TEST_TRANS       PACKAGE TEST_TRANS      CONNECTED TO MODEL TEST_TRANS       PACKAGE CHD              ON UNIT   1018 AT TIME STEP      3, STRESS PERIOD      9

 HEAD WILL BE SAVED ON UNIT 1019 AT END OF TIME STEP    3, STRESS PERIOD    9
 UBDSV1 SAVING           STO-SS ON UNIT   1018 AT TIME STEP      4, STRESS PERIOD      9
 UBDSV1 SAVING           STO-SY ON UNIT   1018 AT TIME STEP      4, STRESS PERIOD      9
 UBDSV1 SAVING     FLOW-JA-FACE ON UNIT   1018 AT TIME STEP      4, STRESS PERIOD      9
 UBDSV06 SAVING              RCH IN MODEL TEST_TRANS       PACKAGE TEST_TRANS      CONNECTED TO MODEL TEST_TRANS       PACKAGE RCHA             ON UNIT   1018 AT TIME STEP      4, STRESS PERIOD      9
 UBDSV06 SAVING              CHD IN MODEL TEST_TRANS       PACKAGE TEST_TRANS      CONNECTED TO MODEL TEST_TRANS       PACKAGE CHD              ON UNIT   1018 AT TIME STEP      4, STRESS PERIOD      9

 HEAD WILL BE SAVED ON UNIT 1019 AT END OF TIME STEP    4, STRESS PERIOD    9
 UBDSV1 SAVING           STO-SS ON UNIT   1018 AT TIME STEP      5, STRESS PERIOD      9
 UBDSV1 SAVING           STO-SY ON UNIT   1018 AT TIME STEP      5, STRESS PERIOD      9
 UBDSV1 SAVING     FLOW-JA-FACE ON UNIT   1018 AT TIME STEP      5, STRESS PERIOD      9
 UBDSV06 SAVING              RCH IN MODEL TEST_TRANS       PACKAGE TEST_TRANS      CONNECTED TO MODEL TEST_TRANS       PACKAGE RCHA             ON UNIT   1018 AT TIME STEP      5, STRESS PERIOD      9
 UBDSV06 SAVING              CHD IN MODEL TEST_TRANS       PACKAGE TEST_TRANS      CONNECTED TO MODEL TEST_TRANS       PACKAGE CHD              ON UNIT   1018 AT TIME STEP      5, STRESS PERIOD      9

 HEAD WILL BE SAVED ON UNIT 1019 AT END OF TIME STEP    5, STRESS PERIOD    9
 UBDSV1 SAVING           STO-SS ON UNIT   1018 AT TIME STEP      6, STRESS PERIOD      9
 UBDSV1 SAVING           STO-SY ON UNIT   1018 AT TIME STEP      6, STRESS PERIOD      9
 UBDSV1 SAVING     FLOW-JA-FACE ON UNIT   1018 AT TIME STEP      6, STRESS PERIOD      9
 UBDSV06 SAVING              RCH IN MODEL TEST_TRANS       PACKAGE TEST_TRANS      CONNECTED TO MODEL TEST_TRANS       PACKAGE RCHA             ON UNIT   1018 AT TIME STEP      6, STRESS PERIOD      9
 UBDSV06 SAVING              CHD IN MODEL TEST_TRANS       PACKAGE TEST_TRANS      CONNECTED TO MODEL TEST_TRANS       PACKAGE CHD              ON UNIT   1018 AT TIME STEP      6, STRESS PERIOD      9

 HEAD WILL BE SAVED ON UNIT 1019 AT END OF TIME STEP    6, STRESS PERIOD    9
 UBDSV1 SAVING           STO-SS ON UNIT   1018 AT TIME STEP      7, STRESS PERIOD      9
 UBDSV1 SAVING           STO-SY ON UNIT   1018 AT TIME STEP      7, STRESS PERIOD      9
 UBDSV1 SAVING     FLOW-JA-FACE ON UNIT   1018 AT TIME STEP      7, STRESS PERIOD      9
 UBDSV06 SAVING              RCH IN MODEL TEST_TRANS       PACKAGE TEST_TRANS      CONNECTED TO MODEL TEST_TRANS       PACKAGE RCHA             ON UNIT   1018 AT TIME STEP      7, STRESS PERIOD      9
 UBDSV06 SAVING              CHD IN MODEL TEST_TRANS       PACKAGE TEST_TRANS      CONNECTED TO MODEL TEST_TRANS       PACKAGE CHD              ON UNIT   1018 AT TIME STEP      7, STRESS PERIOD      9

 HEAD WILL BE SAVED ON UNIT 1019 AT END OF TIME STEP    7, STRESS PERIOD    9
 UBDSV1 SAVING           STO-SS ON UNIT   1018 AT TIME STEP      8, STRESS PERIOD      9
 UBDSV1 SAVING           STO-SY ON UNIT   1018 AT TIME STEP      8, STRESS PERIOD      9
 UBDSV1 SAVING     FLOW-JA-FACE ON UNIT   1018 AT TIME STEP      8, STRESS PERIOD      9
 UBDSV06 SAVING              RCH IN MODEL TEST_TRANS       PACKAGE TEST_TRANS      CONNECTED TO MODEL TEST_TRANS       PACKAGE RCHA             ON UNIT   1018 AT TIME STEP      8, STRESS PERIOD      9
 UBDSV06 SAVING              CHD IN MODEL TEST_TRANS       PACKAGE TEST_TRANS      CONNECTED TO MODEL TEST_TRANS       PACKAGE CHD              ON UNIT   1018 AT TIME STEP      8, STRESS PERIOD      9

 HEAD WILL BE SAVED ON UNIT 1019 AT END OF TIME STEP    8, STRESS PERIOD    9
 UBDSV1 SAVING           STO-SS ON UNIT   1018 AT TIME STEP      9, STRESS PERIOD      9
 UBDSV1 SAVING           STO-SY ON UNIT   1018 AT TIME STEP      9, STRESS PERIOD      9
 UBDSV1 SAVING     FLOW-JA-FACE ON UNIT   1018 AT TIME STEP      9, STRESS PERIOD      9
 UBDSV06 SAVING              RCH IN MODEL TEST_TRANS       PACKAGE TEST_TRANS      CONNECTED TO MODEL TEST_TRANS       PACKAGE RCHA             ON UNIT   1018 AT TIME STEP      9, STRESS PERIOD      9
 UBDSV06 SAVING              CHD IN MODEL TEST_TRANS       PACKAGE TEST_TRANS      CONNECTED TO MODEL TEST_TRANS       PACKAGE CHD              ON UNIT   1018 AT TIME STEP      9, STRESS PERIOD      9

 HEAD WILL BE SAVED ON UNIT 1019 AT END OF TIME STEP    9, STRESS PERIOD    9
 UBDSV1 SAVING           STO-SS ON UNIT   1018 AT TIME STEP     10, STRESS PERIOD      9
 UBDSV1 SAVING           STO-SY ON UNIT   1018 AT TIME STEP     10, STRESS PERIOD      9
 UBDSV1 SAVING     FLOW-JA-FACE ON UNIT   1018 AT TIME STEP     10, STRESS PERIOD      9
 UBDSV06 SAVING              RCH IN MODEL TEST_TRANS       PACKAGE TEST_TRANS      CONNECTED TO MODEL TEST_TRANS       PACKAGE RCHA             ON UNIT   1018 AT TIME STEP     10, STRESS PERIOD      9
 UBDSV06 SAVING              CHD IN MODEL TEST_TRANS       PACKAGE TEST_TRANS      CONNECTED TO MODEL TEST_TRANS       PACKAGE CHD              ON UNIT   1018 AT TIME STEP     10, STRESS PERIOD      9
1
  HEAD IN LAYER   1 AT END OF TIME STEP  10 IN STRESS PERIOD    9
  ---------------------------------------------------------------------------

                1               2               3               4               5               6               7               8               9              10
               11              12              13              14              15              16              17              18              19              20
               21              22              23              24              25              26              27              28              29              30
 ................................................................................................................................................................
   1      27.6595         27.6559         27.6486         27.6376         27.6228         27.6043         27.5817         27.5552         27.5244         27.4892    
          27.4494         27.4048         27.3551         27.2999         27.2389         27.1718         27.0979         27.0167         26.9277         26.8302    
          26.7231         26.6057         26.4766         26.3346         26.1778         26.0040         25.8102         25.5923         25.3440         25.0550    
   2      27.6595         27.6559         27.6486         27.6376         27.6228         27.6043         27.5817         27.5552         27.5244         27.4892    
          27.4494         27.4048         27.3551         27.2999         27.2389         27.1718         27.0979         27.0167         26.9277         26.8302    
          26.7231         26.6057         26.4766         26.3346         26.1778         26.0040         25.8102         25.5923         25.3440         25.0550    
   3      27.6595         27.6559         27.6486         27.6376         27.6228         27.6043         27.5817         27.5552         27.5244         27.4892    
          27.4494         27.4048         27.3551         27.2999         27.2389         27.1718         27.0979         27.0167         26.9277         26.8301    
          26.7231         26.6057         26.4766         26.3346         26.1778         26.0040         25.8102         25.5923         25.3440         25.0550    
   4      27.6595         27.6559         27.6486         27.6376         27.6228         27.6043         27.5817         27.5552         27.5244         27.4892    
          27.4494         27.4048         27.3551         27.2999         27.2389         27.1718         27.0979         27.0167         26.9277         26.8301    
          26.7231         26.6057         26.4766         26.3346         26.1778         26.0040         25.8102         25.5923         25.3440         25.0550    
   5      27.6595         27.6559         27.6486         27.6376         27.6228         27.6043         27.5817         27.5552         27.5244         27.4892    
          27.4494         27.4048         27.3551         27.2999         27.2389         27.1718         27.0979         27.0167         26.9277         26.8301    
          26.7231         26.6057         26.4766         26.3346         26.1778         26.0040         25.8102         25.5923         25.3440         25.0550    
   6      27.6595         27.6559         27.6486         27.6376         27.6228         27.6043         27.5817         27.5552         27.5244         27.4892    
          27.4494         27.4048         27.3551         27.2999         27.2389         27.1718         27.0979         27.0167         26.9277         26.8301    
          26.7231         26.6057         26.4766         26.3346         26.1778         26.0040         25.8102         25.5923         25.3440         25.0550    
   7      27.6595         27.6559         27.6486         27.6376         27.6228         27.6043         27.5817         27.5552         27.5244         27.4892    
          27.4494         27.4048         27.3551         27.2999         27.2389         27.1718         27.0979         27.0167         26.9277         26.8301    
          26.7231         26.6057         26.4766         26.3346         26.1778         26.0040         25.8102         25.5923         25.3440         25.0550    
   8      27.6595         27.6559         27.6486         27.6376         27.6228         27.6043         27.5817         27.5552         27.5244         27.4892    
          27.4494         27.4048         27.3551         27.2999         27.2389         27.1718         27.0979         27.0167         26.9277         26.8301    
          26.7231         26.6057         26.4766         26.3346         26.1778         26.0040         25.8102         25.5923         25.3440         25.0550    
   9      27.6595         27.6559         27.6486         27.6376         27.6228         27.6043         27.5817         27.5552         27.5244         27.4892    
          27.4494         27.4048         27.3551         27.2999         27.2389         27.1718         27.0979         27.0167         26.9277         26.8301    
          26.7231         26.6057         26.4766         26.3346         26.1778         26.0040         25.8102         25.5923         25.3440         25.0550    
  10      27.6595         27.6559         27.6486         27.6376         27.6228         27.6043         27.5817         27.5552         27.5244         27.4892    
          27.4494         27.4048         27.3551         27.2999         27.2389         27.1718         27.0979         27.0167         26.9277         26.8301    
          26.7231         26.6057         26.4766         26.3346         26.1778         26.0040         25.8102         25.5923         25.3440         25.0550    
  11      27.6595         27.6559         27.6486         27.6376         27.6228         27.6043         27.5817         27.5552         27.5244         27.4892    
          27.4494         27.4048         27.3551         27.2999         27.2389         27.1718         27.0979         27.0167         26.9277         26.8301    
          26.7231         26.6057         26.4766         26.3346         26.1778         26.0040         25.8102         25.5923         25.3440         25.0550    
  12      27.6595         27.6559         27.6486         27.6376         27.6228         27.6043         27.5817         27.5552         27.5244         27.4892    
          27.4494         27.4048         27.3551         27.2999         27.2389         27.1718         27.0979         27.0167         26.9277         26.8301    
          26.7231         26.6057         26.4766         26.3346         26.1778         26.0040         25.8102         25.5923         25.3440         25.0550    
  13      27.6595         27.6559         27.6486         27.6376         27.6228         27.6043         27.5817         27.5552         27.5244         27.4892    
          27.4494         27.4048         27.3551         27.2999         27.2389         27.1718         27.0979         27.0167         26.9277         26.8301    
          26.7231         26.6057         26.4766         26.3346         26.1778         26.0040         25.8102         25.5923         25.3440         25.0550    
  14      27.6595         27.6559         27.6486         27.6376         27.6228         27.6043         27.5817         27.5552         27.5244         27.4892    
          27.4494         27.4048         27.3551         27.2999         27.2389         27.1718         27.0979         27.0167         26.9277         26.8301    
          26.7231         26.6057         26.4766         26.3346         26.1778         26.0040         25.8102         25.5923         25.3440         25.0550    
  15      27.6595         27.6559         27.6486         27.6376         27.6228         27.6043         27.5817         27.5552         27.5244         27.4892    
          27.4494         27.4048         27.3551         27.2999         27.2389         27.1718         27.0979         27.0167         26.9277         26.8301    
          26.7231         26.6057         26.4766         26.3346         26.1778         26.0040         25.8102         25.5923         25.3440         25.0550    
  16      27.6595         27.6559         27.6486         27.6376         27.6228         27.6043         27.5817         27.5552         27.5244         27.4892    
          27.4494         27.4048         27.3551         27.2999         27.2389         27.1718         27.0979         27.0167         26.9277         26.8301    
          26.7231         26.6057         26.4766         26.3346         26.1778         26.0040         25.8102         25.5923         25.3440         25.0550    
  17      27.6595         27.6559         27.6486         27.6376         27.6228         27.6043         27.5817         27.5552         27.5244         27.4892    
          27.4494         27.4048         27.3551         27.2999         27.2389         27.1718         27.0979         27.0167         26.9277         26.8301    
          26.7231         26.6057         26.4766         26.3346         26.1778         26.0040         25.8102         25.5923         25.3440         25.0550    
  18      27.6595         27.6559         27.6486         27.6376         27.6228         27.6043         27.5817         27.5552         27.5244         27.4892    
          27.4494         27.4048         27.3551         27.2999         27.2389         27.1718         27.0979         27.0167         26.9277         26.8301    
          26.7231         26.6057         26.4766         26.3346         26.1778         26.0040         25.8102         25.5923         25.3440         25.0550    
  19      27.6595         27.6559         27.6486         27.6376         27.6228         27.6043         27.5817         27.5552         27.5244         27.4892    
          27.4494         27.4048         27.3551         27.2999         27.2389         27.1718         27.0979         27.0167         26.9277         26.8301    
          26.7231         26.6057         26.4766         26.3346         26.1778         26.0040         25.8102         25.5923         25.3440         25.0550    
  20      27.6595         27.6559         27.6486         27.6376         27.6228         27.6043         27.5817         27.5552         27.5244         27.4892    
          27.4494         27.4048         27.3551         27.2999         27.2389         27.1718         27.0979         27.0167         26.9277         26.8301    
          26.7231         26.6057         26.4766         26.3346         26.1778         26.0040         25.8102         25.5923         25.3440         25.0550    
  21      27.6595         27.6559         27.6486         27.6376         27.6228         27.6043         27.5817         27.5552         27.5244         27.4892    
          27.4494         27.4048         27.3551         27.2999         27.2389         27.1718         27.0979         27.0167         26.9277         26.8301    
          26.7231         26.6057         26.4766         26.3346         26.1778         26.0040         25.8102         25.5923         25.3440         25.0550    
  22      27.6595         27.6559         27.6486         27.6376         27.6228         27.6043         27.5817         27.5552         27.5244         27.4892    
          27.4494         27.4048         27.3551         27.2999         27.2389         27.1718         27.0979         27.0167         26.9277         26.8301    
          26.7231         26.6057         26.4766         26.3346         26.1778         26.0040         25.8102         25.5923         25.3440         25.0550    
  23      27.6595         27.6559         27.6486         27.6376         27.6228         27.6043         27.5817         27.5552         27.5244         27.4892    
          27.4494         27.4048         27.3551         27.2999         27.2389         27.1718         27.0979         27.0167         26.9277         26.8301    
          26.7231         26.6057         26.4766         26.3346         26.1778         26.0040         25.8102         25.5923         25.3440         25.0550    
  24      27.6595         27.6559         27.6486         27.6376         27.6228         27.6043         27.5817         27.5552         27.5244         27.4892    
          27.4494         27.4048         27.3551         27.2999         27.2389         27.1718         27.0979         27.0167         26.9277         26.8301    
          26.7231         26.6057         26.4766         26.3346         26.1778         26.0040         25.8102         25.5923         25.3440         25.0550    
  25      27.6595         27.6559         27.6486         27.6376         27.6228         27.6043         27.5817         27.5552         27.5244         27.4892    
          27.4494         27.4048         27.3551         27.2999         27.2389         27.1718         27.0979         27.0167         26.9277         26.8301    
          26.7231         26.6057         26.4766         26.3346         26.1778         26.0040         25.8102         25.5923         25.3440         25.0550    
  26      27.6595         27.6559         27.6486         27.6376         27.6228         27.6043         27.5817         27.5552         27.5244         27.4892    
          27.4494         27.4048         27.3551         27.2999         27.2389         27.1718         27.0979         27.0167         26.9277         26.8301    
          26.7231         26.6057         26.4766         26.3346         26.1778         26.0040         25.8102         25.5923         25.3440         25.0550    
  27      27.6595         27.6559         27.6486         27.6376         27.6228         27.6043         27.5817         27.5552         27.5244         27.4892    
          27.4494         27.4048         27.3551         27.2999         27.2389         27.1718         27.0979         27.0167         26.9277         26.8301    
          26.7231         26.6057         26.4766         26.3346         26.1778         26.0040         25.8102         25.5923         25.3440         25.0550    
  28      27.6595         27.6559         27.6486         27.6376         27.6228         27.6043         27.5817         27.5552         27.5244         27.4892    
          27.4494         27.4048         27.3551         27.2999         27.2389         27.1718         27.0979         27.0167         26.9277         26.8301    
          26.7231         26.6057         26.4766         26.3346         26.1778         26.0040         25.8102         25.5923         25.3440         25.0550    
  29      27.6595         27.6559         27.6486         27.6376         27.6228         27.6043         27.5817         27.5552         27.5244         27.4892    
          27.4494         27.4048         27.3551         27.2999         27.2389         27.1718         27.0979         27.0167         26.9277         26.8301    
          26.7231         26.6057         26.4766         26.3346         26.1778         26.0040         25.8102         25.5923         25.3440         25.0550    
  30      27.6595         27.6559         27.6486         27.6376         27.6228         27.6043         27.5817         27.5552         27.5244         27.4892    
          27.4494         27.4048         27.3551         27.2999         27.2389         27.1718         27.0979         27.0167         26.9277         26.8301    
          26.7231         26.6057         26.4766         26.3346         26.1778         26.0040         25.8102         25.5923         25.3440         25.0550    

 HEAD WILL BE SAVED ON UNIT 1019 AT END OF TIME STEP   10, STRESS PERIOD    9


  VOLUME BUDGET FOR ENTIRE MODEL AT END OF TIME STEP   10, STRESS PERIOD   9
  ---------------------------------------------------------------------------------------------------

     CUMULATIVE VOLUME      L**3       RATES FOR THIS TIME STEP      L**3/T          PACKAGE NAME    
     ------------------                 ------------------------                     ----------------

           IN:                                      IN:
           ---                                      ---
              STO-SS =          19.2288                STO-SS =       3.6556E-02     STORAGE         
              STO-SY =       12203.6227                STO-SY =          24.2812     STORAGE         
                 RCH =       33489.0597                   RCH =         143.0141     RCHA            
                 CHD =         597.9608                   CHD =           0.0000     CHD             

            TOTAL IN =       46309.8719              TOTAL IN =         167.3318

          OUT:                                     OUT:
          ----                                     ----
              STO-SS =           9.1054                STO-SS =       5.2991E-03     STORAGE         
              STO-SY =        6079.1599                STO-SY =           3.2856     STORAGE         
                 RCH =           0.0000                   RCH =           0.0000     RCHA            
                 CHD =       40221.2419                   CHD =         164.0362     CHD             

           TOTAL OUT =       46309.5072             TOTAL OUT =         167.3271

            IN - OUT =           0.3647              IN - OUT =       4.6730E-03

 PERCENT DISCREPANCY =           0.00     PERCENT DISCREPANCY =           0.00




         TIME SUMMARY AT END OF TIME STEP   10 IN STRESS PERIOD    9
                    SECONDS     MINUTES      HOURS       DAYS        YEARS
                    -----------------------------------------------------------
   TIME STEP LENGTH 2.59200E+05  4320.0      72.000      3.0000     8.21355E-03
 STRESS PERIOD TIME 2.59200E+06  43200.      720.00      30.000     8.21355E-02
         TOTAL TIME 2.08224E+07 3.47040E+05  5784.0      241.00     0.65982    

 OUTPUT CONTROL FOR STRESS PERIOD 10 IS REPEATED USING SETTINGS FROM A PREVIOUS STRESS PERIOD.


 STRESS PERIOD 10 IS TRANSIENT


                 RECHARGE =  0.2191780E-02
 UBDSV1 SAVING           STO-SS ON UNIT   1018 AT TIME STEP      1, STRESS PERIOD     10
 UBDSV1 SAVING           STO-SY ON UNIT   1018 AT TIME STEP      1, STRESS PERIOD     10
 UBDSV1 SAVING     FLOW-JA-FACE ON UNIT   1018 AT TIME STEP      1, STRESS PERIOD     10
 UBDSV06 SAVING              RCH IN MODEL TEST_TRANS       PACKAGE TEST_TRANS      CONNECTED TO MODEL TEST_TRANS       PACKAGE RCHA             ON UNIT   1018 AT TIME STEP      1, STRESS PERIOD     10
 UBDSV06 SAVING              CHD IN MODEL TEST_TRANS       PACKAGE TEST_TRANS      CONNECTED TO MODEL TEST_TRANS       PACKAGE CHD              ON UNIT   1018 AT TIME STEP      1, STRESS PERIOD     10
1
  HEAD IN LAYER   1 AT END OF TIME STEP   1 IN STRESS PERIOD   10
  ---------------------------------------------------------------------------

                1               2               3               4               5               6               7               8               9              10
               11              12              13              14              15              16              17              18              19              20
               21              22              23              24              25              26              27              28              29              30
 ................................................................................................................................................................
   1      27.6700         27.6663         27.6589         27.6477         27.6327         27.6138         27.5909         27.5639         27.5326         27.4968    
          27.4564         27.4111         27.3607         27.3048         27.2430         27.1750         27.1003         27.0184         26.9287         26.8304    
          26.7227         26.6047         26.4753         26.3328         26.1756         26.0011         25.8060         25.5850         25.3298         25.0242    
   2      27.6700         27.6663         27.6589         27.6477         27.6327         27.6138         27.5909         27.5639         27.5326         27.4968    
          27.4564         27.4111         27.3607         27.3048         27.2430         27.1750         27.1003         27.0184         26.9287         26.8304    
          26.7227         26.6047         26.4753         26.3328         26.1756         26.0011         25.8060         25.5850         25.3298         25.0242    
   3      27.6700         27.6663         27.6589         27.6477         27.6327         27.6138         27.5909         27.5639         27.5326         27.4968    
          27.4564         27.4111         27.3607         27.3048         27.2430         27.1750         27.1003         27.0184         26.9287         26.8304    
          26.7227         26.6047         26.4753         26.3328         26.1756         26.0011         25.8060         25.5850         25.3298         25.0242    
   4      27.6700         27.6663         27.6589         27.6477         27.6327         27.6138         27.5909         27.5639         27.5326         27.4968    
          27.4564         27.4111         27.3607         27.3048         27.2430         27.1750         27.1003         27.0184         26.9287         26.8304    
          26.7227         26.6047         26.4753         26.3328         26.1756         26.0011         25.8060         25.5850         25.3298         25.0242    
   5      27.6700         27.6663         27.6589         27.6477         27.6327         27.6138         27.5909         27.5639         27.5326         27.4968    
          27.4564         27.4111         27.3607         27.3048         27.2430         27.1750         27.1003         27.0184         26.9287         26.8304    
          26.7227         26.6047         26.4753         26.3328         26.1756         26.0011         25.8060         25.5850         25.3298         25.0242    
   6      27.6700         27.6663         27.6589         27.6477         27.6327         27.6138         27.5909         27.5639         27.5326         27.4968    
          27.4564         27.4111         27.3607         27.3048         27.2430         27.1750         27.1003         27.0184         26.9287         26.8304    
          26.7227         26.6047         26.4753         26.3328         26.1756         26.0011         25.8060         25.5850         25.3298         25.0242    
   7      27.6700         27.6663         27.6589         27.6477         27.6327         27.6138         27.5909         27.5639         27.5326         27.4968    
          27.4564         27.4111         27.3607         27.3048         27.2430         27.1750         27.1003         27.0184         26.9287         26.8304    
          26.7227         26.6047         26.4753         26.3328         26.1756         26.0011         25.8060         25.5850         25.3298         25.0242    
   8      27.6700         27.6663         27.6589         27.6477         27.6327         27.6138         27.5909         27.5639         27.5326         27.4968    
          27.4564         27.4111         27.3607         27.3048         27.2430         27.1750         27.1003         27.0184         26.9286         26.8304    
          26.7227         26.6047         26.4753         26.3328         26.1756         26.0011         25.8060         25.5850         25.3298         25.0242    
   9      27.6700         27.6663         27.6589         27.6477         27.6327         27.6138         27.5909         27.5639         27.5326         27.4968    
          27.4564         27.4111         27.3607         27.3048         27.2430         27.1750         27.1003         27.0184         26.9286         26.8304    
          26.7227         26.6047         26.4753         26.3328         26.1756         26.0011         25.8060         25.5850         25.3298         25.0242    
  10      27.6700         27.6663         27.6589         27.6477         27.6327         27.6138         27.5909         27.5639         27.5326         27.4968    
          27.4564         27.4111         27.3607         27.3048         27.2430         27.1750         27.1003         27.0184         26.9286         26.8304    
          26.7227         26.6047         26.4753         26.3328         26.1756         26.0011         25.8060         25.5850         25.3298         25.0242    
  11      27.6700         27.6663         27.6589         27.6477         27.6327         27.6138         27.5909         27.5639         27.5326         27.4968    
          27.4564         27.4111         27.3607         27.3048         27.2430         27.1750         27.1003         27.0184         26.9286         26.8304    
          26.7227         26.6047         26.4753         26.3328         26.1756         26.0011         25.8060         25.5850         25.3298         25.0242    
  12      27.6700         27.6663         27.6589         27.6477         27.6327         27.6138         27.5909         27.5639         27.5326         27.4968    
          27.4564         27.4111         27.3607         27.3048         27.2430         27.1750         27.1003         27.0184         26.9286         26.8304    
          26.7227         26.6047         26.4753         26.3328         26.1756         26.0011         25.8060         25.5850         25.3298         25.0242    
  13      27.6700         27.6663         27.6589         27.6477         27.6327         27.6138         27.5909         27.5639         27.5326         27.4968    
          27.4564         27.4111         27.3607         27.3048         27.2430         27.1750         27.1003         27.0184         26.9286         26.8304    
          26.7227         26.6047         26.4753         26.3328         26.1756         26.0011         25.8060         25.5850         25.3298         25.0242    
  14      27.6700         27.6663         27.6589         27.6477         27.6327         27.6138         27.5909         27.5639         27.5326         27.4968    
          27.4564         27.4111         27.3607         27.3048         27.2430         27.1750         27.1003         27.0184         26.9286         26.8304    
          26.7227         26.6047         26.4753         26.3328         26.1756         26.0011         25.8060         25.5850         25.3298         25.0242    
  15      27.6700         27.6663         27.6589         27.6477         27.6327         27.6138         27.5909         27.5639         27.5326         27.4968    
          27.4564         27.4111         27.3607         27.3048         27.2430         27.1750         27.1003         27.0184         26.9286         26.8304    
          26.7227         26.6047         26.4753         26.3328         26.1756         26.0011         25.8060         25.5850         25.3298         25.0242    
  16      27.6700         27.6663         27.6589         27.6477         27.6327         27.6138         27.5909         27.5639         27.5326         27.4968    
          27.4564         27.4111         27.3607         27.3048         27.2430         27.1750         27.1003         27.0184         26.9286         26.8304    
          26.7227         26.6047         26.4753         26.3328         26.1756         26.0011         25.8060         25.5850         25.3298         25.0242    
  17      27.6700         27.6663         27.6589         27.6477         27.6327         27.6138         27.5909         27.5639         27.5326         27.4968    
          27.4564         27.4111         27.3607         27.3048         27.2430         27.1750         27.1003         27.0184         26.9286         26.8304    
          26.7227         26.6047         26.4753         26.3328         26.1756         26.0011         25.8060         25.5850         25.3298         25.0242    
  18      27.6700         27.6663         27.6589         27.6477         27.6327         27.6138         27.5909         27.5639         27.5326         27.4968    
          27.4564         27.4111         27.3607         27.3048         27.2430         27.1750         27.1003         27.0184         26.9286         26.8304    
          26.7227         26.6047         26.4753         26.3328         26.1756         26.0011         25.8060         25.5850         25.3298         25.0242    
  19      27.6700         27.6663         27.6589         27.6477         27.6327         27.6138         27.5909         27.5639         27.5326         27.4968    
          27.4564         27.4111         27.3607         27.3048         27.2430         27.1750         27.1003         27.0184         26.9286         26.8304    
          26.7227         26.6047         26.4753         26.3328         26.1756         26.0011         25.8060         25.5850         25.3298         25.0242    
  20      27.6700         27.6663         27.6589         27.6477         27.6327         27.6138         27.5909         27.5639         27.5326         27.4968    
          27.4564         27.4111         27.3607         27.3048         27.2430         27.1750         27.1003         27.0184         26.9286         26.8304    
          26.7227         26.6047         26.4753         26.3328         26.1756         26.0011         25.8060         25.5850         25.3298         25.0242    
  21      27.6700         27.6663         27.6589         27.6477         27.6327         27.6138         27.5909         27.5639         27.5326         27.4968    
          27.4564         27.4111         27.3607         27.3048         27.2430         27.1750         27.1003         27.0184         26.9286         26.8304    
          26.7227         26.6047         26.4753         26.3328         26.1756         26.0011         25.8060         25.5850         25.3298         25.0242    
  22      27.6700         27.6663         27.6589         27.6477         27.6327         27.6138         27.5909         27.5639         27.5326         27.4968    
          27.4564         27.4111         27.3607         27.3048         27.2430         27.1750         27.1003         27.0184         26.9286         26.8304    
          26.7227         26.6047         26.4753         26.3328         26.1756         26.0011         25.8060         25.5850         25.3298         25.0242    
  23      27.6700         27.6663         27.6589         27.6477         27.6327         27.6138         27.5909         27.5639         27.5326         27.4968    
          27.4564         27.4111         27.3607         27.3048         27.2430         27.1750         27.1003         27.0184         26.9286         26.8304    
          26.7227         26.6047         26.4753         26.3328         26.1756         26.0011         25.8060         25.5850         25.3298         25.0242    
  24      27.6700         27.6663         27.6589         27.6477         27.6327         27.6138         27.5909         27.5639         27.5326         27.4968    
          27.4564         27.4111         27.3607         27.3048         27.2430         27.1750         27.1003         27.0184         26.9286         26.8304    
          26.7227         26.6047         26.4753         26.3328         26.1756         26.0011         25.8060         25.5850         25.3298         25.0242    
  25      27.6700         27.6663         27.6588         27.6477         27.6327         27.6138         27.5909         27.5639         27.5326         27.4968    
          27.4564         27.4111         27.3607         27.3048         27.2430         27.1750         27.1003         27.0184         26.9286         26.8304    
          26.7227         26.6047         26.4753         26.3328         26.1756         26.0011         25.8060         25.5850         25.3298         25.0242    
  26      27.6700         27.6663         27.6588         27.6477         27.6327         27.6138         27.5909         27.5639         27.5326         27.4968    
          27.4564         27.4111         27.3607         27.3048         27.2430         27.1750         27.1003         27.0184         26.9286         26.8304    
          26.7227         26.6047         26.4753         26.3328         26.1756         26.0011         25.8060         25.5850         25.3298         25.0242    
  27      27.6700         27.6663         27.6588         27.6477         27.6327         27.6138         27.5909         27.5639         27.5326         27.4968    
          27.4564         27.4111         27.3607         27.3048         27.2430         27.1750         27.1003         27.0184         26.9286         26.8304    
          26.7227         26.6047         26.4753         26.3328         26.1756         26.0011         25.8060         25.5850         25.3298         25.0242    
  28      27.6700         27.6663         27.6588         27.6477         27.6327         27.6138         27.5909         27.5639         27.5326         27.4968    
          27.4564         27.4111         27.3607         27.3048         27.2430         27.1750         27.1003         27.0184         26.9286         26.8304    
          26.7227         26.6047         26.4753         26.3328         26.1756         26.0011         25.8060         25.5850         25.3298         25.0242    
  29      27.6700         27.6663         27.6588         27.6477         27.6327         27.6138         27.5909         27.5639         27.5326         27.4968    
          27.4564         27.4111         27.3607         27.3048         27.2430         27.1750         27.1003         27.0184         26.9286         26.8304    
          26.7227         26.6047         26.4753         26.3328         26.1756         26.0011         25.8060         25.5850         25.3298         25.0242    
  30      27.6700         27.6663         27.6589         27.6477         27.6327         27.6138         27.5909         27.5639         27.5326         27.4968    
          27.4564         27.4111         27.3607         27.3048         27.2430         27.1750         27.1003         27.0184         26.9286         26.8304    
          26.7227         26.6047         26.4753         26.3328         26.1756         26.0011         25.8060         25.5850         25.3298         25.0242    

 HEAD WILL BE SAVED ON UNIT 1019 AT END OF TIME STEP    1, STRESS PERIOD   10



         TIME SUMMARY AT END OF TIME STEP    1 IN STRESS PERIOD   10
                    SECONDS     MINUTES      HOURS       DAYS        YEARS
                    -----------------------------------------------------------
   TIME STEP LENGTH 2.59200E+05  4320.0      72.000      3.0000     8.21355E-03
 STRESS PERIOD TIME 2.59200E+05  4320.0      72.000      3.0000     8.21355E-03
         TOTAL TIME 2.10816E+07 3.51360E+05  5856.0      244.00     0.66804    
 UBDSV1 SAVING           STO-SS ON UNIT   1018 AT TIME STEP      2, STRESS PERIOD     10
 UBDSV1 SAVING           STO-SY ON UNIT   1018 AT TIME STEP      2, STRESS PERIOD     10
 UBDSV1 SAVING     FLOW-JA-FACE ON UNIT   1018 AT TIME STEP      2, STRESS PERIOD     10
 UBDSV06 SAVING              RCH IN MODEL TEST_TRANS       PACKAGE TEST_TRANS      CONNECTED TO MODEL TEST_TRANS       PACKAGE RCHA             ON UNIT   1018 AT TIME STEP      2, STRESS PERIOD     10
 UBDSV06 SAVING              CHD IN MODEL TEST_TRANS       PACKAGE TEST_TRANS      CONNECTED TO MODEL TEST_TRANS       PACKAGE CHD              ON UNIT   1018 AT TIME STEP      2, STRESS PERIOD     10

 HEAD WILL BE SAVED ON UNIT 1019 AT END OF TIME STEP    2, STRESS PERIOD   10
 UBDSV1 SAVING           STO-SS ON UNIT   1018 AT TIME STEP      3, STRESS PERIOD     10
 UBDSV1 SAVING           STO-SY ON UNIT   1018 AT TIME STEP      3, STRESS PERIOD     10
 UBDSV1 SAVING     FLOW-JA-FACE ON UNIT   1018 AT TIME STEP      3, STRESS PERIOD     10
 UBDSV06 SAVING              RCH IN MODEL TEST_TRANS       PACKAGE TEST_TRANS      CONNECTED TO MODEL TEST_TRANS       PACKAGE RCHA             ON UNIT   1018 AT TIME STEP      3, STRESS PERIOD     10
 UBDSV06 SAVING              CHD IN MODEL TEST_TRANS       PACKAGE TEST_TRANS      CONNECTED TO MODEL TEST_TRANS       PACKAGE CHD              ON UNIT   1018 AT TIME STEP      3, STRESS PERIOD     10

 HEAD WILL BE SAVED ON UNIT 1019 AT END OF TIME STEP    3, STRESS PERIOD   10
 UBDSV1 SAVING           STO-SS ON UNIT   1018 AT TIME STEP      4, STRESS PERIOD     10
 UBDSV1 SAVING           STO-SY ON UNIT   1018 AT TIME STEP      4, STRESS PERIOD     10
 UBDSV1 SAVING     FLOW-JA-FACE ON UNIT   1018 AT TIME STEP      4, STRESS PERIOD     10
 UBDSV06 SAVING              RCH IN MODEL TEST_TRANS       PACKAGE TEST_TRANS      CONNECTED TO MODEL TEST_TRANS       PACKAGE RCHA             ON UNIT   1018 AT TIME STEP      4, STRESS PERIOD     10
 UBDSV06 SAVING              CHD IN MODEL TEST_TRANS       PACKAGE TEST_TRANS      CONNECTED TO MODEL TEST_TRANS       PACKAGE CHD              ON UNIT   1018 AT TIME STEP      4, STRESS PERIOD     10

 HEAD WILL BE SAVED ON UNIT 1019 AT END OF TIME STEP    4, STRESS PERIOD   10
 UBDSV1 SAVING           STO-SS ON UNIT   1018 AT TIME STEP      5, STRESS PERIOD     10
 UBDSV1 SAVING           STO-SY ON UNIT   1018 AT TIME STEP      5, STRESS PERIOD     10
 UBDSV1 SAVING     FLOW-JA-FACE ON UNIT   1018 AT TIME STEP      5, STRESS PERIOD     10
 UBDSV06 SAVING              RCH IN MODEL TEST_TRANS       PACKAGE TEST_TRANS      CONNECTED TO MODEL TEST_TRANS       PACKAGE RCHA             ON UNIT   1018 AT TIME STEP      5, STRESS PERIOD     10
 UBDSV06 SAVING              CHD IN MODEL TEST_TRANS       PACKAGE TEST_TRANS      CONNECTED TO MODEL TEST_TRANS       PACKAGE CHD              ON UNIT   1018 AT TIME STEP      5, STRESS PERIOD     10

 HEAD WILL BE SAVED ON UNIT 1019 AT END OF TIME STEP    5, STRESS PERIOD   10
 UBDSV1 SAVING           STO-SS ON UNIT   1018 AT TIME STEP      6, STRESS PERIOD     10
 UBDSV1 SAVING           STO-SY ON UNIT   1018 AT TIME STEP      6, STRESS PERIOD     10
 UBDSV1 SAVING     FLOW-JA-FACE ON UNIT   1018 AT TIME STEP      6, STRESS PERIOD     10
 UBDSV06 SAVING              RCH IN MODEL TEST_TRANS       PACKAGE TEST_TRANS      CONNECTED TO MODEL TEST_TRANS       PACKAGE RCHA             ON UNIT   1018 AT TIME STEP      6, STRESS PERIOD     10
 UBDSV06 SAVING              CHD IN MODEL TEST_TRANS       PACKAGE TEST_TRANS      CONNECTED TO MODEL TEST_TRANS       PACKAGE CHD              ON UNIT   1018 AT TIME STEP      6, STRESS PERIOD     10

 HEAD WILL BE SAVED ON UNIT 1019 AT END OF TIME STEP    6, STRESS PERIOD   10
 UBDSV1 SAVING           STO-SS ON UNIT   1018 AT TIME STEP      7, STRESS PERIOD     10
 UBDSV1 SAVING           STO-SY ON UNIT   1018 AT TIME STEP      7, STRESS PERIOD     10
 UBDSV1 SAVING     FLOW-JA-FACE ON UNIT   1018 AT TIME STEP      7, STRESS PERIOD     10
 UBDSV06 SAVING              RCH IN MODEL TEST_TRANS       PACKAGE TEST_TRANS      CONNECTED TO MODEL TEST_TRANS       PACKAGE RCHA             ON UNIT   1018 AT TIME STEP      7, STRESS PERIOD     10
 UBDSV06 SAVING              CHD IN MODEL TEST_TRANS       PACKAGE TEST_TRANS      CONNECTED TO MODEL TEST_TRANS       PACKAGE CHD              ON UNIT   1018 AT TIME STEP      7, STRESS PERIOD     10

 HEAD WILL BE SAVED ON UNIT 1019 AT END OF TIME STEP    7, STRESS PERIOD   10
 UBDSV1 SAVING           STO-SS ON UNIT   1018 AT TIME STEP      8, STRESS PERIOD     10
 UBDSV1 SAVING           STO-SY ON UNIT   1018 AT TIME STEP      8, STRESS PERIOD     10
 UBDSV1 SAVING     FLOW-JA-FACE ON UNIT   1018 AT TIME STEP      8, STRESS PERIOD     10
 UBDSV06 SAVING              RCH IN MODEL TEST_TRANS       PACKAGE TEST_TRANS      CONNECTED TO MODEL TEST_TRANS       PACKAGE RCHA             ON UNIT   1018 AT TIME STEP      8, STRESS PERIOD     10
 UBDSV06 SAVING              CHD IN MODEL TEST_TRANS       PACKAGE TEST_TRANS      CONNECTED TO MODEL TEST_TRANS       PACKAGE CHD              ON UNIT   1018 AT TIME STEP      8, STRESS PERIOD     10

 HEAD WILL BE SAVED ON UNIT 1019 AT END OF TIME STEP    8, STRESS PERIOD   10
 UBDSV1 SAVING           STO-SS ON UNIT   1018 AT TIME STEP      9, STRESS PERIOD     10
 UBDSV1 SAVING           STO-SY ON UNIT   1018 AT TIME STEP      9, STRESS PERIOD     10
 UBDSV1 SAVING     FLOW-JA-FACE ON UNIT   1018 AT TIME STEP      9, STRESS PERIOD     10
 UBDSV06 SAVING              RCH IN MODEL TEST_TRANS       PACKAGE TEST_TRANS      CONNECTED TO MODEL TEST_TRANS       PACKAGE RCHA             ON UNIT   1018 AT TIME STEP      9, STRESS PERIOD     10
 UBDSV06 SAVING              CHD IN MODEL TEST_TRANS       PACKAGE TEST_TRANS      CONNECTED TO MODEL TEST_TRANS       PACKAGE CHD              ON UNIT   1018 AT TIME STEP      9, STRESS PERIOD     10

 HEAD WILL BE SAVED ON UNIT 1019 AT END OF TIME STEP    9, STRESS PERIOD   10
 UBDSV1 SAVING           STO-SS ON UNIT   1018 AT TIME STEP     10, STRESS PERIOD     10
 UBDSV1 SAVING           STO-SY ON UNIT   1018 AT TIME STEP     10, STRESS PERIOD     10
 UBDSV1 SAVING     FLOW-JA-FACE ON UNIT   1018 AT TIME STEP     10, STRESS PERIOD     10
 UBDSV06 SAVING              RCH IN MODEL TEST_TRANS       PACKAGE TEST_TRANS      CONNECTED TO MODEL TEST_TRANS       PACKAGE RCHA             ON UNIT   1018 AT TIME STEP     10, STRESS PERIOD     10
 UBDSV06 SAVING              CHD IN MODEL TEST_TRANS       PACKAGE TEST_TRANS      CONNECTED TO MODEL TEST_TRANS       PACKAGE CHD              ON UNIT   1018 AT TIME STEP     10, STRESS PERIOD     10
1
  HEAD IN LAYER   1 AT END OF TIME STEP  10 IN STRESS PERIOD   10
  ---------------------------------------------------------------------------

                1               2               3               4               5               6               7               8               9              10
               11              12              13              14              15              16              17              18              19              20
               21              22              23              24              25              26              27              28              29              30
 ................................................................................................................................................................
   1      27.7477         27.7436         27.7353         27.7228         27.7061         27.6851         27.6596         27.6297         27.5952         27.5558    
          27.5115         27.4621         27.4073         27.3468         27.2804         27.2076         27.1282         27.0415         26.9472         26.8445    
          26.7326         26.6107         26.4776         26.3320         26.1719         25.9950         25.7980         25.5763         25.3225         25.0242    
   2      27.7477         27.7436         27.7353         27.7228         27.7061         27.6851         27.6596         27.6297         27.5952         27.5558    
          27.5115         27.4621         27.4073         27.3468         27.2804         27.2076         27.1282         27.0415         26.9472         26.8445    
          26.7326         26.6107         26.4776         26.3320         26.1719         25.9950         25.7980         25.5763         25.3225         25.0242    
   3      27.7477         27.7436         27.7353         27.7228         27.7061         27.6851         27.6596         27.6297         27.5952         27.5558    
          27.5115         27.4621         27.4073         27.3468         27.2804         27.2076         27.1282         27.0415         26.9472         26.8445    
          26.7326         26.6107         26.4776         26.3320         26.1719         25.9950         25.7980         25.5763         25.3225         25.0242    
   4      27.7477         27.7436         27.7353         27.7228         27.7061         27.6851         27.6596         27.6297         27.5952         27.5558    
          27.5115         27.4621         27.4073         27.3468         27.2804         27.2076         27.1282         27.0415         26.9472         26.8445    
          26.7326         26.6107         26.4776         26.3320         26.1719         25.9950         25.7980         25.5763         25.3225         25.0242    
   5      27.7477         27.7436         27.7353         27.7228         27.7061         27.6851         27.6596         27.6297         27.5952         27.5558    
          27.5115         27.4621         27.4073         27.3468         27.2804         27.2076         27.1282         27.0415         26.9472         26.8445    
          26.7326         26.6107         26.4776         26.3320         26.1719         25.9950         25.7980         25.5763         25.3225         25.0242    
   6      27.7477         27.7436         27.7353         27.7228         27.7061         27.6851         27.6596         27.6297         27.5952         27.5558    
          27.5115         27.4621         27.4073         27.3468         27.2804         27.2076         27.1282         27.0415         26.9472         26.8445    
          26.7326         26.6107         26.4776         26.3320         26.1719         25.9950         25.7980         25.5763         25.3225         25.0242    
   7      27.7477         27.7436         27.7353         27.7228         27.7061         27.6851         27.6596         27.6297         27.5952         27.5558    
          27.5115         27.4621         27.4073         27.3468         27.2804         27.2076         27.1282         27.0415         26.9472         26.8445    
          26.7326         26.6107         26.4776         26.3320         26.1719         25.9950         25.7980         25.5763         25.3225         25.0242    
   8      27.7477         27.7436         27.7353         27.7228         27.7061         27.6851         27.6596         27.6297         27.5952         27.5558    
          27.5115         27.4621         27.4073         27.3468         27.2803         27.2076         27.1282         27.0415         26.9472         26.8445    
          26.7326         26.6107         26.4776         26.3320         26.1719         25.9950         25.7980         25.5763         25.3225         25.0242    
   9      27.7477         27.7436         27.7353         27.7228         27.7061         27.6851         27.6596         27.6297         27.5952         27.5558    
          27.5115         27.4621         27.4073         27.3468         27.2803         27.2076         27.1282         27.0415         26.9472         26.8445    
          26.7326         26.6107         26.4776         26.3320         26.1719         25.9950         25.7980         25.5763         25.3225         25.0242    
  10      27.7477         27.7436         27.7353         27.7228         27.7061         27.6851         27.6596         27.6297         27.5952         27.5558    
          27.5115         27.4621         27.4073         27.3468         27.2803         27.2076         27.1282         27.0415         26.9472         26.8445    
          26.7326         26.6107         26.4776         26.3320         26.1719         25.9950         25.7980         25.5763         25.3225         25.0242    
  11      27.7477         27.7436         27.7353         27.7228         27.7061         27.6851         27.6596         27.6297         27.5952         27.5558    
          27.5115         27.4621         27.4073         27.3468         27.2803         27.2076         27.1282         27.0415         26.9472         26.8445    
          26.7326         26.6107         26.4776         26.3320         26.1719         25.9950         25.7980         25.5763         25.3225         25.0242    
  12      27.7477         27.7436         27.7353         27.7228         27.7061         27.6851         27.6596         27.6297         27.5952         27.5558    
          27.5115         27.4621         27.4073         27.3468         27.2803         27.2076         27.1282         27.0415         26.9472         26.8445    
          26.7326         26.6107         26.4776         26.3320         26.1719         25.9950         25.7980         25.5763         25.3225         25.0242    
  13      27.7477         27.7436         27.7353         27.7228         27.7061         27.6851         27.6596         27.6297         27.5952         27.5558    
          27.5115         27.4621         27.4073         27.3468         27.2803         27.2076         27.1282         27.0415         26.9472         26.8445    
          26.7326         26.6107         26.4776         26.3320         26.1719         25.9950         25.7980         25.5763         25.3225         25.0242    
  14      27.7477         27.7436         27.7353         27.7228         27.7061         27.6851         27.6596         27.6297         27.5952         27.5558    
          27.5115         27.4621         27.4073         27.3468         27.2803         27.2076         27.1282         27.0415         26.9472         26.8445    
          26.7326         26.6107         26.4776         26.3320         26.1719         25.9950         25.7980         25.5763         25.3225         25.0242    
  15      27.7477         27.7436         27.7353         27.7228         27.7061         27.6851         27.6596         27.6297         27.5952         27.5558    
          27.5115         27.4621         27.4073         27.3468         27.2803         27.2076         27.1282         27.0415         26.9472         26.8445    
          26.7326         26.6107         26.4776         26.3320         26.1719         25.9950         25.7980         25.5763         25.3225         25.0242    
  16      27.7477         27.7436         27.7353         27.7228         27.7061         27.6851         27.6596         27.6297         27.5952         27.5558    
          27.5115         27.4621         27.4073         27.3468         27.2803         27.2076         27.1282         27.0415         26.9472         26.8445    
          26.7326         26.6107         26.4776         26.3320         26.1719         25.9950         25.7980         25.5763         25.3225         25.0242    
  17      27.7477         27.7436         27.7353         27.7228         27.7061         27.6851         27.6596         27.6297         27.5952         27.5558    
          27.5115         27.4621         27.4073         27.3468         27.2803         27.2076         27.1282         27.0415         26.9472         26.8445    
          26.7326         26.6107         26.4776         26.3320         26.1719         25.9950         25.7980         25.5763         25.3225         25.0242    
  18      27.7477         27.7436         27.7353         27.7228         27.7061         27.6851         27.6596         27.6297         27.5952         27.5558    
          27.5115         27.4621         27.4073         27.3468         27.2803         27.2076         27.1282         27.0415         26.9472         26.8445    
          26.7326         26.6107         26.4776         26.3320         26.1719         25.9950         25.7980         25.5763         25.3225         25.0242    
  19      27.7477         27.7436         27.7353         27.7228         27.7061         27.6851         27.6596         27.6297         27.5952         27.5558    
          27.5115         27.4621         27.4073         27.3468         27.2803         27.2076         27.1282         27.0415         26.9472         26.8445    
          26.7326         26.6107         26.4776         26.3320         26.1719         25.9950         25.7980         25.5763         25.3225         25.0242    
  20      27.7477         27.7436         27.7353         27.7228         27.7061         27.6851         27.6596         27.6297         27.5952         27.5558    
          27.5115         27.4621         27.4073         27.3468         27.2803         27.2076         27.1282         27.0415         26.9472         26.8445    
          26.7326         26.6107         26.4776         26.3320         26.1719         25.9950         25.7980         25.5763         25.3225         25.0242    
  21      27.7477         27.7436         27.7353         27.7228         27.7061         27.6851         27.6596         27.6297         27.5952         27.5558    
          27.5115         27.4621         27.4073         27.3468         27.2803         27.2076         27.1282         27.0415         26.9472         26.8445    
          26.7326         26.6107         26.4776         26.3320         26.1719         25.9950         25.7980         25.5763         25.3225         25.0242    
  22      27.7477         27.7436         27.7353         27.7228         27.7061         27.6851         27.6596         27.6297         27.5952         27.5558    
          27.5115         27.4621         27.4073         27.3468         27.2803         27.2076         27.1282         27.0415         26.9472         26.8445    
          26.7326         26.6107         26.4776         26.3320         26.1719         25.9950         25.7980         25.5763         25.3225         25.0242    
  23      27.7477         27.7436         27.7353         27.7228         27.7061         27.6851         27.6596         27.6297         27.5952         27.5558    
          27.5115         27.4621         27.4073         27.3468         27.2803         27.2076         27.1282         27.0415         26.9472         26.8445    
          26.7326         26.6107         26.4776         26.3320         26.1719         25.9950         25.7980         25.5763         25.3225         25.0242    
  24      27.7477         27.7436         27.7353         27.7228         27.7061         27.6851         27.6596         27.6297         27.5952         27.5558    
          27.5115         27.4621         27.4073         27.3468         27.2803         27.2076         27.1282         27.0415         26.9472         26.8445    
          26.7326         26.6107         26.4776         26.3320         26.1719         25.9950         25.7980         25.5763         25.3225         25.0242    
  25      27.7477         27.7436         27.7353         27.7228         27.7061         27.6851         27.6596         27.6297         27.5952         27.5558    
          27.5115         27.4621         27.4073         27.3468         27.2803         27.2076         27.1282         27.0415         26.9472         26.8445    
          26.7326         26.6107         26.4776         26.3320         26.1719         25.9950         25.7980         25.5763         25.3225         25.0242    
  26      27.7477         27.7436         27.7353         27.7228         27.7061         27.6851         27.6596         27.6297         27.5952         27.5558    
          27.5115         27.4621         27.4073         27.3468         27.2803         27.2076         27.1282         27.0415         26.9472         26.8445    
          26.7326         26.6107         26.4776         26.3320         26.1719         25.9950         25.7980         25.5763         25.3225         25.0242    
  27      27.7477         27.7436         27.7353         27.7228         27.7061         27.6851         27.6596         27.6297         27.5952         27.5558    
          27.5115         27.4621         27.4073         27.3468         27.2803         27.2076         27.1282         27.0415         26.9472         26.8445    
          26.7326         26.6107         26.4776         26.3320         26.1719         25.9950         25.7980         25.5763         25.3225         25.0242    
  28      27.7477         27.7436         27.7353         27.7228         27.7061         27.6851         27.6596         27.6297         27.5952         27.5558    
          27.5115         27.4621         27.4073         27.3468         27.2803         27.2076         27.1281         27.0415         26.9472         26.8445    
          26.7326         26.6107         26.4776         26.3320         26.1719         25.9950         25.7980         25.5763         25.3225         25.0242    
  29      27.7477         27.7436         27.7353         27.7228         27.7061         27.6851         27.6596         27.6297         27.5952         27.5558    
          27.5115         27.4621         27.4073         27.3468         27.2803         27.2076         27.1281         27.0415         26.9472         26.8445    
          26.7326         26.6107         26.4776         26.3320         26.1719         25.9950         25.7980         25.5763         25.3225         25.0242    
  30      27.7477         27.7436         27.7353         27.7228         27.7061         27.6851         27.6596         27.6297         27.5952         27.5558    
          27.5115         27.4621         27.4073         27.3468         27.2803         27.2076         27.1282         27.0415         26.9472         26.8445    
          26.7326         26.6107         26.4776         26.3320         26.1719         25.9950         25.7980         25.5763         25.3225         25.0242    

 HEAD WILL BE SAVED ON UNIT 1019 AT END OF TIME STEP   10, STRESS PERIOD   10


  VOLUME BUDGET FOR ENTIRE MODEL AT END OF TIME STEP   10, STRESS PERIOD  10
  ---------------------------------------------------------------------------------------------------

     CUMULATIVE VOLUME      L**3       RATES FOR THIS TIME STEP      L**3/T          PACKAGE NAME    
     ------------------                 ------------------------                     ----------------

           IN:                                      IN:
           ---                                      ---
              STO-SS =          19.2987                STO-SS =           0.0000     STORAGE         
              STO-SY =       12252.5303                STO-SY =           0.0000     STORAGE         
                 RCH =       39209.6055                   RCH =         190.6849     RCHA            
                 CHD =         597.9608                   CHD =           0.0000     CHD             

            TOTAL IN =       52079.3953              TOTAL IN =         190.6849

          OUT:                                     OUT:
          ----                                     ----
              STO-SS =          10.2731                STO-SS =       3.7341E-02     STORAGE         
              STO-SY =        6808.9551                STO-SY =          23.4211     STORAGE         
                 RCH =           0.0000                   RCH =           0.0000     RCHA            
                 CHD =       45259.8003                   CHD =         167.2361     CHD             

           TOTAL OUT =       52079.0285             TOTAL OUT =         190.6945

            IN - OUT =           0.3668              IN - OUT =      -9.6184E-03

 PERCENT DISCREPANCY =           0.00     PERCENT DISCREPANCY =          -0.01




         TIME SUMMARY AT END OF TIME STEP   10 IN STRESS PERIOD   10
                    SECONDS     MINUTES      HOURS       DAYS        YEARS
                    -----------------------------------------------------------
   TIME STEP LENGTH 2.59200E+05  4320.0      72.000      3.0000     8.21355E-03
 STRESS PERIOD TIME 2.59200E+06  43200.      720.00      30.000     8.21355E-02
         TOTAL TIME 2.34144E+07 3.90240E+05  6504.0      271.00     0.74196    

 OUTPUT CONTROL FOR STRESS PERIOD 11 IS REPEATED USING SETTINGS FROM A PREVIOUS STRESS PERIOD.


 STRESS PERIOD 11 IS TRANSIENT


                 RECHARGE =  0.2465750E-02
 UBDSV1 SAVING           STO-SS ON UNIT   1018 AT TIME STEP      1, STRESS PERIOD     11
 UBDSV1 SAVING           STO-SY ON UNIT   1018 AT TIME STEP      1, STRESS PERIOD     11
 UBDSV1 SAVING     FLOW-JA-FACE ON UNIT   1018 AT TIME STEP      1, STRESS PERIOD     11
 UBDSV06 SAVING              RCH IN MODEL TEST_TRANS       PACKAGE TEST_TRANS      CONNECTED TO MODEL TEST_TRANS       PACKAGE RCHA             ON UNIT   1018 AT TIME STEP      1, STRESS PERIOD     11
 UBDSV06 SAVING              CHD IN MODEL TEST_TRANS       PACKAGE TEST_TRANS      CONNECTED TO MODEL TEST_TRANS       PACKAGE CHD              ON UNIT   1018 AT TIME STEP      1, STRESS PERIOD     11
1
  HEAD IN LAYER   1 AT END OF TIME STEP   1 IN STRESS PERIOD   11
  ---------------------------------------------------------------------------

                1               2               3               4               5               6               7               8               9              10
               11              12              13              14              15              16              17              18              19              20
               21              22              23              24              25              26              27              28              29              30
 ................................................................................................................................................................
   1      27.7590         27.7548         27.7465         27.7339         27.7170         27.6958         27.6702         27.6401         27.6053         27.5657    
          27.5211         27.4713         27.4162         27.3554         27.2886         27.2155         27.1357         27.0487         26.9540         26.8509    
          26.7387         26.6164         26.4829         26.3368         26.1761         25.9984         25.8001         25.5761         25.3180         25.0108    
   2      27.7590         27.7548         27.7465         27.7339         27.7170         27.6958         27.6702         27.6401         27.6053         27.5657    
          27.5211         27.4713         27.4162         27.3554         27.2886         27.2155         27.1357         27.0487         26.9540         26.8509    
          26.7387         26.6164         26.4829         26.3368         26.1761         25.9984         25.8001         25.5761         25.3180         25.0108    
   3      27.7590         27.7548         27.7465         27.7339         27.7170         27.6958         27.6702         27.6401         27.6053         27.5657    
          27.5211         27.4713         27.4162         27.3554         27.2886         27.2155         27.1357         27.0487         26.9540         26.8509    
          26.7387         26.6164         26.4829         26.3368         26.1761         25.9984         25.8001         25.5761         25.3180         25.0108    
   4      27.7590         27.7548         27.7465         27.7339         27.7170         27.6958         27.6702         27.6401         27.6053         27.5657    
          27.5211         27.4713         27.4162         27.3554         27.2886         27.2155         27.1357         27.0487         26.9540         26.8509    
          26.7387         26.6164         26.4829         26.3368         26.1761         25.9984         25.8001         25.5761         25.3180         25.0108    
   5      27.7590         27.7548         27.7465         27.7339         27.7170         27.6958         27.6702         27.6401         27.6053         27.5657    
          27.5211         27.4713         27.4162         27.3554         27.2886         27.2155         27.1357         27.0487         26.9540         26.8509    
          26.7387         26.6164         26.4829         26.3368         26.1761         25.9984         25.8001         25.5761         25.3180         25.0108    
   6      27.7590         27.7548         27.7465         27.7339         27.7170         27.6958         27.6702         27.6401         27.6053         27.5657    
          27.5211         27.4713         27.4162         27.3554         27.2886         27.2155         27.1357         27.0487         26.9540         26.8509    
          26.7387         26.6164         26.4829         26.3368         26.1761         25.9984         25.8001         25.5761         25.3180         25.0108    
   7      27.7590         27.7548         27.7465         27.7339         27.7170         27.6958         27.6702         27.6401         27.6053         27.5657    
          27.5211         27.4713         27.4162         27.3554         27.2886         27.2155         27.1357         27.0487         26.9540         26.8509    
          26.7387         26.6164         26.4829         26.3368         26.1761         25.9984         25.8001         25.5761         25.3180         25.0108    
   8      27.7590         27.7548         27.7465         27.7339         27.7170         27.6958         27.6702         27.6401         27.6053         27.5657    
          27.5211         27.4713         27.4162         27.3554         27.2886         27.2155         27.1357         27.0487         26.9540         26.8509    
          26.7387         26.6164         26.4829         26.3368         26.1761         25.9984         25.8001         25.5761         25.3180         25.0108    
   9      27.7590         27.7548         27.7465         27.7339         27.7170         27.6958         27.6702         27.6401         27.6053         27.5657    
          27.5211         27.4713         27.4162         27.3554         27.2886         27.2155         27.1357         27.0487         26.9540         26.8509    
          26.7387         26.6164         26.4829         26.3368         26.1761         25.9984         25.8001         25.5761         25.3180         25.0108    
  10      27.7590         27.7548         27.7465         27.7339         27.7170         27.6958         27.6702         27.6401         27.6053         27.5657    
          27.5211         27.4713         27.4162         27.3554         27.2886         27.2155         27.1357         27.0487         26.9540         26.8509    
          26.7387         26.6164         26.4829         26.3368         26.1761         25.9984         25.8001         25.5761         25.3180         25.0108    
  11      27.7590         27.7548         27.7465         27.7339         27.7170         27.6958         27.6702         27.6401         27.6053         27.5657    
          27.5211         27.4713         27.4162         27.3554         27.2886         27.2155         27.1357         27.0487         26.9540         26.8509    
          26.7387         26.6164         26.4829         26.3368         26.1761         25.9984         25.8001         25.5761         25.3180         25.0108    
  12      27.7590         27.7548         27.7465         27.7339         27.7170         27.6958         27.6702         27.6401         27.6053         27.5657    
          27.5211         27.4713         27.4162         27.3554         27.2886         27.2155         27.1357         27.0487         26.9540         26.8509    
          26.7387         26.6164         26.4829         26.3368         26.1761         25.9984         25.8001         25.5761         25.3180         25.0108    
  13      27.7590         27.7548         27.7465         27.7339         27.7170         27.6958         27.6702         27.6401         27.6053         27.5657    
          27.5211         27.4713         27.4162         27.3554         27.2886         27.2155         27.1357         27.0487         26.9540         26.8509    
          26.7387         26.6164         26.4829         26.3368         26.1761         25.9984         25.8001         25.5761         25.3180         25.0108    
  14      27.7590         27.7548         27.7465         27.7339         27.7170         27.6958         27.6702         27.6401         27.6053         27.5657    
          27.5211         27.4713         27.4162         27.3554         27.2886         27.2155         27.1357         27.0487         26.9540         26.8509    
          26.7387         26.6164         26.4829         26.3368         26.1761         25.9984         25.8001         25.5761         25.3180         25.0108    
  15      27.7590         27.7548         27.7465         27.7339         27.7170         27.6958         27.6702         27.6401         27.6053         27.5657    
          27.5211         27.4713         27.4162         27.3554         27.2886         27.2155         27.1357         27.0487         26.9540         26.8509    
          26.7387         26.6164         26.4829         26.3368         26.1761         25.9984         25.8001         25.5761         25.3180         25.0108    
  16      27.7590         27.7548         27.7465         27.7339         27.7170         27.6958         27.6702         27.6401         27.6053         27.5657    
          27.5211         27.4713         27.4162         27.3554         27.2886         27.2155         27.1357         27.0487         26.9540         26.8509    
          26.7387         26.6164         26.4829         26.3368         26.1761         25.9984         25.8001         25.5761         25.3180         25.0108    
  17      27.7590         27.7548         27.7465         27.7339         27.7170         27.6958         27.6702         27.6401         27.6053         27.5657    
          27.5211         27.4713         27.4162         27.3554         27.2886         27.2155         27.1357         27.0487         26.9540         26.8509    
          26.7387         26.6164         26.4829         26.3368         26.1761         25.9984         25.8001         25.5761         25.3180         25.0108    
  18      27.7590         27.7548         27.7465         27.7339         27.7170         27.6958         27.6702         27.6401         27.6053         27.5657    
          27.5211         27.4713         27.4162         27.3554         27.2886         27.2155         27.1357         27.0487         26.9540         26.8509    
          26.7387         26.6164         26.4829         26.3368         26.1761         25.9984         25.8001         25.5761         25.3180         25.0108    
  19      27.7590         27.7548         27.7465         27.7339         27.7170         27.6958         27.6702         27.6401         27.6053         27.5657    
          27.5211         27.4713         27.4162         27.3554         27.2886         27.2155         27.1357         27.0487         26.9540         26.8509    
          26.7387         26.6164         26.4829         26.3368         26.1761         25.9984         25.8001         25.5761         25.3180         25.0108    
  20      27.7590         27.7548         27.7465         27.7339         27.7170         27.6958         27.6702         27.6401         27.6053         27.5657    
          27.5211         27.4713         27.4162         27.3554         27.2886         27.2155         27.1357         27.0487         26.9540         26.8509    
          26.7387         26.6164         26.4829         26.3368         26.1761         25.9984         25.8001         25.5761         25.3180         25.0108    
  21      27.7590         27.7548         27.7465         27.7339         27.7170         27.6958         27.6702         27.6401         27.6053         27.5657    
          27.5211         27.4713         27.4162         27.3554         27.2886         27.2155         27.1357         27.0487         26.9540         26.8509    
          26.7387         26.6164         26.4829         26.3368         26.1761         25.9984         25.8001         25.5761         25.3180         25.0108    
  22      27.7590         27.7548         27.7465         27.7339         27.7170         27.6958         27.6702         27.6401         27.6053         27.5657    
          27.5211         27.4713         27.4162         27.3554         27.2886         27.2155         27.1357         27.0487         26.9540         26.8509    
          26.7387         26.6164         26.4829         26.3368         26.1761         25.9984         25.8001         25.5761         25.3180         25.0108    
  23      27.7590         27.7548         27.7465         27.7339         27.7170         27.6958         27.6702         27.6401         27.6053         27.5657    
          27.5211         27.4713         27.4162         27.3554         27.2886         27.2155         27.1357         27.0487         26.9540         26.8509    
          26.7387         26.6164         26.4829         26.3368         26.1761         25.9984         25.8001         25.5761         25.3180         25.0108    
  24      27.7590         27.7548         27.7465         27.7339         27.7170         27.6958         27.6702         27.6401         27.6053         27.5657    
          27.5211         27.4713         27.4162         27.3554         27.2886         27.2155         27.1357         27.0487         26.9540         26.8509    
          26.7387         26.6164         26.4829         26.3368         26.1761         25.9984         25.8001         25.5761         25.3180         25.0108    
  25      27.7590         27.7548         27.7465         27.7339         27.7170         27.6958         27.6702         27.6401         27.6053         27.5657    
          27.5211         27.4713         27.4162         27.3554         27.2886         27.2155         27.1357         27.0487         26.9540         26.8509    
          26.7387         26.6164         26.4829         26.3368         26.1761         25.9984         25.8001         25.5761         25.3180         25.0108    
  26      27.7590         27.7548         27.7465         27.7339         27.7170         27.6958         27.6702         27.6401         27.6053         27.5657    
          27.5211         27.4713         27.4162         27.3554         27.2886         27.2155         27.1357         27.0487         26.9540         26.8509    
          26.7387         26.6164         26.4829         26.3368         26.1761         25.9984         25.8001         25.5761         25.3180         25.0108    
  27      27.7590         27.7548         27.7464         27.7339         27.7170         27.6958         27.6702         27.6401         27.6053         27.5657    
          27.5211         27.4713         27.4162         27.3554         27.2886         27.2155         27.1357         27.0487         26.9540         26.8509    
          26.7387         26.6164         26.4829         26.3368         26.1761         25.9984         25.8001         25.5761         25.3180         25.0108    
  28      27.7590         27.7548         27.7464         27.7339         27.7170         27.6958         27.6702         27.6401         27.6053         27.5657    
          27.5211         27.4713         27.4162         27.3554         27.2886         27.2155         27.1357         27.0487         26.9540         26.8509    
          26.7387         26.6164         26.4829         26.3368         26.1761         25.9984         25.8001         25.5761         25.3180         25.0108    
  29      27.7590         27.7548         27.7464         27.7339         27.7170         27.6958         27.6702         27.6401         27.6053         27.5657    
          27.5211         27.4713         27.4162         27.3554         27.2886         27.2155         27.1357         27.0487         26.9540         26.8509    
          26.7387         26.6164         26.4829         26.3368         26.1761         25.9984         25.8001         25.5761         25.3180         25.0108    
  30      27.7590         27.7548         27.7464         27.7339         27.7170         27.6958         27.6702         27.6401         27.6053         27.5657    
          27.5211         27.4713         27.4162         27.3554         27.2886         27.2155         27.1357         27.0487         26.9540         26.8509    
          26.7387         26.6164         26.4829         26.3368         26.1761         25.9984         25.8001         25.5761         25.3180         25.0108    

 HEAD WILL BE SAVED ON UNIT 1019 AT END OF TIME STEP    1, STRESS PERIOD   11



         TIME SUMMARY AT END OF TIME STEP    1 IN STRESS PERIOD   11
                    SECONDS     MINUTES      HOURS       DAYS        YEARS
                    -----------------------------------------------------------
   TIME STEP LENGTH 2.59200E+05  4320.0      72.000      3.0000     8.21355E-03
 STRESS PERIOD TIME 2.59200E+05  4320.0      72.000      3.0000     8.21355E-03
         TOTAL TIME 2.36736E+07 3.94560E+05  6576.0      274.00     0.75017    
 UBDSV1 SAVING           STO-SS ON UNIT   1018 AT TIME STEP      2, STRESS PERIOD     11
 UBDSV1 SAVING           STO-SY ON UNIT   1018 AT TIME STEP      2, STRESS PERIOD     11
 UBDSV1 SAVING     FLOW-JA-FACE ON UNIT   1018 AT TIME STEP      2, STRESS PERIOD     11
 UBDSV06 SAVING              RCH IN MODEL TEST_TRANS       PACKAGE TEST_TRANS      CONNECTED TO MODEL TEST_TRANS       PACKAGE RCHA             ON UNIT   1018 AT TIME STEP      2, STRESS PERIOD     11
 UBDSV06 SAVING              CHD IN MODEL TEST_TRANS       PACKAGE TEST_TRANS      CONNECTED TO MODEL TEST_TRANS       PACKAGE CHD              ON UNIT   1018 AT TIME STEP      2, STRESS PERIOD     11

 HEAD WILL BE SAVED ON UNIT 1019 AT END OF TIME STEP    2, STRESS PERIOD   11
 UBDSV1 SAVING           STO-SS ON UNIT   1018 AT TIME STEP      3, STRESS PERIOD     11
 UBDSV1 SAVING           STO-SY ON UNIT   1018 AT TIME STEP      3, STRESS PERIOD     11
 UBDSV1 SAVING     FLOW-JA-FACE ON UNIT   1018 AT TIME STEP      3, STRESS PERIOD     11
 UBDSV06 SAVING              RCH IN MODEL TEST_TRANS       PACKAGE TEST_TRANS      CONNECTED TO MODEL TEST_TRANS       PACKAGE RCHA             ON UNIT   1018 AT TIME STEP      3, STRESS PERIOD     11
 UBDSV06 SAVING              CHD IN MODEL TEST_TRANS       PACKAGE TEST_TRANS      CONNECTED TO MODEL TEST_TRANS       PACKAGE CHD              ON UNIT   1018 AT TIME STEP      3, STRESS PERIOD     11

 HEAD WILL BE SAVED ON UNIT 1019 AT END OF TIME STEP    3, STRESS PERIOD   11
 UBDSV1 SAVING           STO-SS ON UNIT   1018 AT TIME STEP      4, STRESS PERIOD     11
 UBDSV1 SAVING           STO-SY ON UNIT   1018 AT TIME STEP      4, STRESS PERIOD     11
 UBDSV1 SAVING     FLOW-JA-FACE ON UNIT   1018 AT TIME STEP      4, STRESS PERIOD     11
 UBDSV06 SAVING              RCH IN MODEL TEST_TRANS       PACKAGE TEST_TRANS      CONNECTED TO MODEL TEST_TRANS       PACKAGE RCHA             ON UNIT   1018 AT TIME STEP      4, STRESS PERIOD     11
 UBDSV06 SAVING              CHD IN MODEL TEST_TRANS       PACKAGE TEST_TRANS      CONNECTED TO MODEL TEST_TRANS       PACKAGE CHD              ON UNIT   1018 AT TIME STEP      4, STRESS PERIOD     11

 HEAD WILL BE SAVED ON UNIT 1019 AT END OF TIME STEP    4, STRESS PERIOD   11
 UBDSV1 SAVING           STO-SS ON UNIT   1018 AT TIME STEP      5, STRESS PERIOD     11
 UBDSV1 SAVING           STO-SY ON UNIT   1018 AT TIME STEP      5, STRESS PERIOD     11
 UBDSV1 SAVING     FLOW-JA-FACE ON UNIT   1018 AT TIME STEP      5, STRESS PERIOD     11
 UBDSV06 SAVING              RCH IN MODEL TEST_TRANS       PACKAGE TEST_TRANS      CONNECTED TO MODEL TEST_TRANS       PACKAGE RCHA             ON UNIT   1018 AT TIME STEP      5, STRESS PERIOD     11
 UBDSV06 SAVING              CHD IN MODEL TEST_TRANS       PACKAGE TEST_TRANS      CONNECTED TO MODEL TEST_TRANS       PACKAGE CHD              ON UNIT   1018 AT TIME STEP      5, STRESS PERIOD     11

 HEAD WILL BE SAVED ON UNIT 1019 AT END OF TIME STEP    5, STRESS PERIOD   11
 UBDSV1 SAVING           STO-SS ON UNIT   1018 AT TIME STEP      6, STRESS PERIOD     11
 UBDSV1 SAVING           STO-SY ON UNIT   1018 AT TIME STEP      6, STRESS PERIOD     11
 UBDSV1 SAVING     FLOW-JA-FACE ON UNIT   1018 AT TIME STEP      6, STRESS PERIOD     11
 UBDSV06 SAVING              RCH IN MODEL TEST_TRANS       PACKAGE TEST_TRANS      CONNECTED TO MODEL TEST_TRANS       PACKAGE RCHA             ON UNIT   1018 AT TIME STEP      6, STRESS PERIOD     11
 UBDSV06 SAVING              CHD IN MODEL TEST_TRANS       PACKAGE TEST_TRANS      CONNECTED TO MODEL TEST_TRANS       PACKAGE CHD              ON UNIT   1018 AT TIME STEP      6, STRESS PERIOD     11

 HEAD WILL BE SAVED ON UNIT 1019 AT END OF TIME STEP    6, STRESS PERIOD   11
 UBDSV1 SAVING           STO-SS ON UNIT   1018 AT TIME STEP      7, STRESS PERIOD     11
 UBDSV1 SAVING           STO-SY ON UNIT   1018 AT TIME STEP      7, STRESS PERIOD     11
 UBDSV1 SAVING     FLOW-JA-FACE ON UNIT   1018 AT TIME STEP      7, STRESS PERIOD     11
 UBDSV06 SAVING              RCH IN MODEL TEST_TRANS       PACKAGE TEST_TRANS      CONNECTED TO MODEL TEST_TRANS       PACKAGE RCHA             ON UNIT   1018 AT TIME STEP      7, STRESS PERIOD     11
 UBDSV06 SAVING              CHD IN MODEL TEST_TRANS       PACKAGE TEST_TRANS      CONNECTED TO MODEL TEST_TRANS       PACKAGE CHD              ON UNIT   1018 AT TIME STEP      7, STRESS PERIOD     11

 HEAD WILL BE SAVED ON UNIT 1019 AT END OF TIME STEP    7, STRESS PERIOD   11
 UBDSV1 SAVING           STO-SS ON UNIT   1018 AT TIME STEP      8, STRESS PERIOD     11
 UBDSV1 SAVING           STO-SY ON UNIT   1018 AT TIME STEP      8, STRESS PERIOD     11
 UBDSV1 SAVING     FLOW-JA-FACE ON UNIT   1018 AT TIME STEP      8, STRESS PERIOD     11
 UBDSV06 SAVING              RCH IN MODEL TEST_TRANS       PACKAGE TEST_TRANS      CONNECTED TO MODEL TEST_TRANS       PACKAGE RCHA             ON UNIT   1018 AT TIME STEP      8, STRESS PERIOD     11
 UBDSV06 SAVING              CHD IN MODEL TEST_TRANS       PACKAGE TEST_TRANS      CONNECTED TO MODEL TEST_TRANS       PACKAGE CHD              ON UNIT   1018 AT TIME STEP      8, STRESS PERIOD     11

 HEAD WILL BE SAVED ON UNIT 1019 AT END OF TIME STEP    8, STRESS PERIOD   11
 UBDSV1 SAVING           STO-SS ON UNIT   1018 AT TIME STEP      9, STRESS PERIOD     11
 UBDSV1 SAVING           STO-SY ON UNIT   1018 AT TIME STEP      9, STRESS PERIOD     11
 UBDSV1 SAVING     FLOW-JA-FACE ON UNIT   1018 AT TIME STEP      9, STRESS PERIOD     11
 UBDSV06 SAVING              RCH IN MODEL TEST_TRANS       PACKAGE TEST_TRANS      CONNECTED TO MODEL TEST_TRANS       PACKAGE RCHA             ON UNIT   1018 AT TIME STEP      9, STRESS PERIOD     11
 UBDSV06 SAVING              CHD IN MODEL TEST_TRANS       PACKAGE TEST_TRANS      CONNECTED TO MODEL TEST_TRANS       PACKAGE CHD              ON UNIT   1018 AT TIME STEP      9, STRESS PERIOD     11

 HEAD WILL BE SAVED ON UNIT 1019 AT END OF TIME STEP    9, STRESS PERIOD   11
 UBDSV1 SAVING           STO-SS ON UNIT   1018 AT TIME STEP     10, STRESS PERIOD     11
 UBDSV1 SAVING           STO-SY ON UNIT   1018 AT TIME STEP     10, STRESS PERIOD     11
 UBDSV1 SAVING     FLOW-JA-FACE ON UNIT   1018 AT TIME STEP     10, STRESS PERIOD     11
 UBDSV06 SAVING              RCH IN MODEL TEST_TRANS       PACKAGE TEST_TRANS      CONNECTED TO MODEL TEST_TRANS       PACKAGE RCHA             ON UNIT   1018 AT TIME STEP     10, STRESS PERIOD     11
 UBDSV06 SAVING              CHD IN MODEL TEST_TRANS       PACKAGE TEST_TRANS      CONNECTED TO MODEL TEST_TRANS       PACKAGE CHD              ON UNIT   1018 AT TIME STEP     10, STRESS PERIOD     11
1
  HEAD IN LAYER   1 AT END OF TIME STEP  10 IN STRESS PERIOD   11
  ---------------------------------------------------------------------------

                1               2               3               4               5               6               7               8               9              10
               11              12              13              14              15              16              17              18              19              20
               21              22              23              24              25              26              27              28              29              30
 ................................................................................................................................................................
   1      27.8503         27.8459         27.8371         27.8239         27.8061         27.7839         27.7570         27.7254         27.6889         27.6474    
          27.6008         27.5489         27.4914         27.4281         27.3587         27.2828         27.2000         27.1100         27.0120         26.9055    
          26.7896         26.6635         26.5258         26.3751         26.2094         26.0262         25.8218         25.5909         25.3254         25.0108    
   2      27.8503         27.8459         27.8371         27.8239         27.8061         27.7839         27.7570         27.7254         27.6889         27.6474    
          27.6008         27.5489         27.4914         27.4281         27.3587         27.2828         27.2000         27.1100         27.0120         26.9055    
          26.7896         26.6635         26.5258         26.3751         26.2094         26.0262         25.8218         25.5909         25.3254         25.0108    
   3      27.8503         27.8459         27.8371         27.8239         27.8061         27.7839         27.7570         27.7254         27.6889         27.6474    
          27.6008         27.5489         27.4914         27.4281         27.3587         27.2828         27.2000         27.1100         27.0120         26.9055    
          26.7896         26.6635         26.5258         26.3751         26.2094         26.0262         25.8218         25.5909         25.3254         25.0108    
   4      27.8503         27.8459         27.8371         27.8239         27.8061         27.7839         27.7570         27.7254         27.6889         27.6474    
          27.6008         27.5489         27.4914         27.4281         27.3587         27.2828         27.2000         27.1100         27.0120         26.9055    
          26.7896         26.6635         26.5258         26.3751         26.2094         26.0262         25.8218         25.5909         25.3254         25.0108    
   5      27.8503         27.8459         27.8371         27.8239         27.8061         27.7839         27.7570         27.7254         27.6889         27.6474    
          27.6008         27.5489         27.4914         27.4281         27.3587         27.2828         27.2000         27.1100         27.0120         26.9055    
          26.7896         26.6635         26.5258         26.3751         26.2094         26.0262         25.8218         25.5909         25.3254         25.0108    
   6      27.8503         27.8459         27.8371         27.8239         27.8061         27.7839         27.7570         27.7254         27.6889         27.6474    
          27.6008         27.5489         27.4914         27.4281         27.3587         27.2828         27.2000         27.1100         27.0120         26.9055    
          26.7896         26.6635         26.5258         26.3751         26.2094         26.0262         25.8218         25.5909         25.3254         25.0108    
   7      27.8503         27.8459         27.8371         27.8239         27.8061         27.7839         27.7570         27.7254         27.6889         27.6474    
          27.6008         27.5489         27.4914         27.4281         27.3587         27.2828         27.2000         27.1100         27.0120         26.9055    
          26.7896         26.6635         26.5258         26.3751         26.2094         26.0262         25.8218         25.5909         25.3254         25.0108    
   8      27.8503         27.8459         27.8371         27.8239         27.8061         27.7839         27.7570         27.7254         27.6889         27.6474    
          27.6008         27.5489         27.4914         27.4281         27.3587         27.2828         27.2000         27.1100         27.0120         26.9055    
          26.7896         26.6635         26.5258         26.3751         26.2094         26.0262         25.8218         25.5909         25.3254         25.0108    
   9      27.8503         27.8459         27.8371         27.8239         27.8061         27.7839         27.7570         27.7254         27.6889         27.6474    
          27.6008         27.5489         27.4914         27.4281         27.3587         27.2828         27.2000         27.1100         27.0120         26.9055    
          26.7896         26.6635         26.5258         26.3751         26.2094         26.0262         25.8218         25.5909         25.3254         25.0108    
  10      27.8503         27.8459         27.8371         27.8239         27.8061         27.7839         27.7570         27.7254         27.6889         27.6474    
          27.6008         27.5489         27.4914         27.4281         27.3587         27.2828         27.2000         27.1100         27.0120         26.9055    
          26.7896         26.6635         26.5258         26.3751         26.2094         26.0262         25.8218         25.5909         25.3254         25.0108    
  11      27.8503         27.8459         27.8371         27.8239         27.8061         27.7839         27.7570         27.7254         27.6889         27.6474    
          27.6008         27.5489         27.4914         27.4281         27.3587         27.2828         27.2000         27.1100         27.0120         26.9055    
          26.7896         26.6635         26.5258         26.3751         26.2094         26.0262         25.8218         25.5909         25.3254         25.0108    
  12      27.8503         27.8459         27.8371         27.8239         27.8061         27.7839         27.7570         27.7254         27.6889         27.6474    
          27.6008         27.5489         27.4914         27.4281         27.3587         27.2828         27.2000         27.1100         27.0120         26.9055    
          26.7896         26.6635         26.5258         26.3751         26.2094         26.0262         25.8218         25.5909         25.3254         25.0108    
  13      27.8503         27.8459         27.8371         27.8239         27.8061         27.7839         27.7570         27.7254         27.6889         27.6474    
          27.6008         27.5489         27.4914         27.4281         27.3587         27.2828         27.2000         27.1100         27.0120         26.9055    
          26.7896         26.6635         26.5258         26.3751         26.2094         26.0262         25.8218         25.5909         25.3254         25.0108    
  14      27.8503         27.8459         27.8371         27.8239         27.8061         27.7839         27.7570         27.7254         27.6889         27.6474    
          27.6008         27.5489         27.4914         27.4281         27.3587         27.2828         27.2000         27.1100         27.0120         26.9055    
          26.7896         26.6635         26.5258         26.3751         26.2094         26.0262         25.8218         25.5909         25.3254         25.0108    
  15      27.8503         27.8459         27.8371         27.8239         27.8061         27.7839         27.7570         27.7254         27.6889         27.6474    
          27.6008         27.5489         27.4914         27.4281         27.3587         27.2828         27.2000         27.1100         27.0120         26.9055    
          26.7896         26.6635         26.5258         26.3751         26.2094         26.0262         25.8218         25.5909         25.3254         25.0108    
  16      27.8503         27.8459         27.8371         27.8239         27.8061         27.7839         27.7570         27.7254         27.6889         27.6474    
          27.6008         27.5489         27.4914         27.4281         27.3587         27.2828         27.2000         27.1100         27.0120         26.9055    
          26.7896         26.6635         26.5258         26.3751         26.2094         26.0262         25.8218         25.5909         25.3254         25.0108    
  17      27.8503         27.8459         27.8371         27.8239         27.8061         27.7839         27.7570         27.7254         27.6889         27.6474    
          27.6008         27.5489         27.4914         27.4281         27.3587         27.2828         27.2000         27.1100         27.0120         26.9055    
          26.7896         26.6635         26.5258         26.3751         26.2094         26.0262         25.8218         25.5909         25.3254         25.0108    
  18      27.8503         27.8459         27.8371         27.8239         27.8061         27.7839         27.7570         27.7254         27.6889         27.6474    
          27.6008         27.5489         27.4914         27.4281         27.3587         27.2828         27.2000         27.1100         27.0120         26.9055    
          26.7896         26.6635         26.5258         26.3751         26.2094         26.0262         25.8218         25.5909         25.3254         25.0108    
  19      27.8503         27.8459         27.8371         27.8239         27.8061         27.7839         27.7570         27.7254         27.6889         27.6474    
          27.6008         27.5489         27.4914         27.4281         27.3587         27.2828         27.2000         27.1100         27.0120         26.9055    
          26.7896         26.6635         26.5258         26.3751         26.2094         26.0262         25.8218         25.5909         25.3254         25.0108    
  20      27.8503         27.8459         27.8371         27.8239         27.8061         27.7839         27.7570         27.7254         27.6889         27.6474    
          27.6008         27.5489         27.4914         27.4281         27.3587         27.2828         27.2000         27.1100         27.0120         26.9055    
          26.7896         26.6635         26.5258         26.3751         26.2094         26.0262         25.8218         25.5909         25.3254         25.0108    
  21      27.8503         27.8459         27.8371         27.8239         27.8061         27.7839         27.7570         27.7254         27.6889         27.6474    
          27.6008         27.5489         27.4914         27.4281         27.3587         27.2828         27.2000         27.1100         27.0120         26.9055    
          26.7896         26.6635         26.5258         26.3751         26.2094         26.0262         25.8218         25.5909         25.3254         25.0108    
  22      27.8503         27.8459         27.8371         27.8239         27.8061         27.7839         27.7570         27.7254         27.6889         27.6474    
          27.6008         27.5489         27.4914         27.4281         27.3587         27.2828         27.2000         27.1100         27.0120         26.9055    
          26.7896         26.6635         26.5258         26.3751         26.2094         26.0262         25.8218         25.5909         25.3254         25.0108    
  23      27.8503         27.8459         27.8371         27.8239         27.8061         27.7839         27.7570         27.7254         27.6889         27.6474    
          27.6008         27.5489         27.4914         27.4281         27.3587         27.2828         27.2000         27.1100         27.0120         26.9055    
          26.7896         26.6635         26.5258         26.3751         26.2094         26.0262         25.8218         25.5909         25.3254         25.0108    
  24      27.8503         27.8459         27.8371         27.8239         27.8061         27.7839         27.7570         27.7254         27.6889         27.6474    
          27.6008         27.5489         27.4914         27.4281         27.3587         27.2828         27.2000         27.1100         27.0120         26.9055    
          26.7896         26.6635         26.5258         26.3751         26.2094         26.0262         25.8218         25.5909         25.3254         25.0108    
  25      27.8503         27.8459         27.8371         27.8239         27.8061         27.7839         27.7570         27.7254         27.6889         27.6474    
          27.6008         27.5489         27.4914         27.4281         27.3587         27.2828         27.2000         27.1100         27.0120         26.9055    
          26.7896         26.6635         26.5258         26.3751         26.2094         26.0262         25.8218         25.5909         25.3254         25.0108    
  26      27.8503         27.8459         27.8371         27.8239         27.8061         27.7839         27.7570         27.7254         27.6889         27.6474    
          27.6008         27.5489         27.4914         27.4281         27.3587         27.2828         27.2000         27.1100         27.0120         26.9055    
          26.7896         26.6635         26.5258         26.3751         26.2094         26.0262         25.8218         25.5909         25.3254         25.0108    
  27      27.8503         27.8459         27.8371         27.8239         27.8061         27.7839         27.7570         27.7254         27.6889         27.6474    
          27.6008         27.5489         27.4914         27.4281         27.3587         27.2828         27.2000         27.1100         27.0120         26.9055    
          26.7896         26.6635         26.5258         26.3751         26.2094         26.0262         25.8218         25.5909         25.3254         25.0108    
  28      27.8503         27.8459         27.8371         27.8239         27.8061         27.7839         27.7570         27.7254         27.6889         27.6474    
          27.6008         27.5489         27.4914         27.4281         27.3587         27.2828         27.2000         27.1100         27.0120         26.9055    
          26.7896         26.6635         26.5258         26.3751         26.2094         26.0262         25.8218         25.5909         25.3254         25.0108    
  29      27.8503         27.8459         27.8371         27.8239         27.8061         27.7839         27.7570         27.7254         27.6889         27.6474    
          27.6008         27.5489         27.4914         27.4281         27.3587         27.2828         27.2000         27.1100         27.0120         26.9055    
          26.7896         26.6635         26.5258         26.3751         26.2094         26.0262         25.8218         25.5909         25.3254         25.0108    
  30      27.8503         27.8459         27.8371         27.8239         27.8061         27.7839         27.7570         27.7254         27.6889         27.6474    
          27.6008         27.5489         27.4914         27.4281         27.3587         27.2828         27.2000         27.1100         27.0120         26.9055    
          26.7896         26.6635         26.5258         26.3751         26.2094         26.0262         25.8218         25.5909         25.3254         25.0108    

 HEAD WILL BE SAVED ON UNIT 1019 AT END OF TIME STEP   10, STRESS PERIOD   11


  VOLUME BUDGET FOR ENTIRE MODEL AT END OF TIME STEP   10, STRESS PERIOD  11
  ---------------------------------------------------------------------------------------------------

     CUMULATIVE VOLUME      L**3       RATES FOR THIS TIME STEP      L**3/T          PACKAGE NAME    
     ------------------                 ------------------------                     ----------------

           IN:                                      IN:
           ---                                      ---
              STO-SS =          19.3027                STO-SS =           0.0000     STORAGE         
              STO-SY =       12255.4442                STO-SY =           0.0000     STORAGE         
                 RCH =       45645.2130                   RCH =         214.5203     RCHA            
                 CHD =         597.9608                   CHD =           0.0000     CHD             

            TOTAL IN =       58517.9207              TOTAL IN =         214.5203

          OUT:                                     OUT:
          ----                                     ----
              STO-SS =          12.2344                STO-SS =       6.1258E-02     STORAGE         
              STO-SY =        8046.2487                STO-SY =          38.5930     STORAGE         
                 RCH =           0.0000                   RCH =           0.0000     RCHA            
                 CHD =       50459.1666                   CHD =         175.8701     CHD             

           TOTAL OUT =       58517.6497             TOTAL OUT =         214.5243

            IN - OUT =           0.2709              IN - OUT =      -4.0653E-03

 PERCENT DISCREPANCY =           0.00     PERCENT DISCREPANCY =          -0.00




         TIME SUMMARY AT END OF TIME STEP   10 IN STRESS PERIOD   11
                    SECONDS     MINUTES      HOURS       DAYS        YEARS
                    -----------------------------------------------------------
   TIME STEP LENGTH 2.59200E+05  4320.0      72.000      3.0000     8.21355E-03
 STRESS PERIOD TIME 2.59200E+06  43200.      720.00      30.000     8.21355E-02
         TOTAL TIME 2.60064E+07 4.33440E+05  7224.0      301.00     0.82409    

 OUTPUT CONTROL FOR STRESS PERIOD 12 IS REPEATED USING SETTINGS FROM A PREVIOUS STRESS PERIOD.


 STRESS PERIOD 12 IS TRANSIENT


                 RECHARGE =  0.2739730E-02
 UBDSV1 SAVING           STO-SS ON UNIT   1018 AT TIME STEP      1, STRESS PERIOD     12
 UBDSV1 SAVING           STO-SY ON UNIT   1018 AT TIME STEP      1, STRESS PERIOD     12
 UBDSV1 SAVING     FLOW-JA-FACE ON UNIT   1018 AT TIME STEP      1, STRESS PERIOD     12
 UBDSV06 SAVING              RCH IN MODEL TEST_TRANS       PACKAGE TEST_TRANS      CONNECTED TO MODEL TEST_TRANS       PACKAGE RCHA             ON UNIT   1018 AT TIME STEP      1, STRESS PERIOD     12
 UBDSV06 SAVING              CHD IN MODEL TEST_TRANS       PACKAGE TEST_TRANS      CONNECTED TO MODEL TEST_TRANS       PACKAGE CHD              ON UNIT   1018 AT TIME STEP      1, STRESS PERIOD     12
1
  HEAD IN LAYER   1 AT END OF TIME STEP   1 IN STRESS PERIOD   12
  ---------------------------------------------------------------------------

                1               2               3               4               5               6               7               8               9              10
               11              12              13              14              15              16              17              18              19              20
               21              22              23              24              25              26              27              28              29              30
 ................................................................................................................................................................
   1      27.8636         27.8592         27.8503         27.8370         27.8192         27.7969         27.7699         27.7381         27.7015         27.6598    
          27.6130         27.5609         27.5031         27.4396         27.3698         27.2935         27.2104         27.1197         27.0210         26.9135    
          26.7963         26.6681         26.5272         26.3714         26.1972         25.9991         25.7679         25.4858         25.1129         24.5204    
   2      27.8636         27.8592         27.8503         27.8370         27.8192         27.7969         27.7699         27.7381         27.7015         27.6598    
          27.6130         27.5609         27.5031         27.4396         27.3698         27.2935         27.2104         27.1197         27.0210         26.9135    
          26.7963         26.6681         26.5272         26.3714         26.1972         25.9991         25.7679         25.4858         25.1129         24.5204    
   3      27.8636         27.8592         27.8503         27.8370         27.8192         27.7969         27.7699         27.7381         27.7015         27.6598    
          27.6130         27.5609         27.5031         27.4396         27.3698         27.2935         27.2104         27.1197         27.0210         26.9135    
          26.7963         26.6681         26.5272         26.3714         26.1972         25.9991         25.7679         25.4858         25.1129         24.5204    
   4      27.8636         27.8592         27.8503         27.8370         27.8192         27.7969         27.7699         27.7381         27.7015         27.6598    
          27.6130         27.5609         27.5031         27.4396         27.3698         27.2935         27.2104         27.1197         27.0210         26.9135    
          26.7963         26.6681         26.5272         26.3714         26.1972         25.9991         25.7679         25.4858         25.1129         24.5204    
   5      27.8636         27.8592         27.8503         27.8370         27.8192         27.7969         27.7699         27.7381         27.7015         27.6598    
          27.6130         27.5609         27.5031         27.4396         27.3698         27.2935         27.2104         27.1197         27.0210         26.9135    
          26.7963         26.6681         26.5272         26.3714         26.1972         25.9991         25.7679         25.4858         25.1129         24.5204    
   6      27.8636         27.8592         27.8503         27.8370         27.8192         27.7969         27.7699         27.7381         27.7015         27.6598    
          27.6130         27.5609         27.5031         27.4396         27.3698         27.2935         27.2104         27.1197         27.0210         26.9135    
          26.7963         26.6681         26.5272         26.3714         26.1972         25.9991         25.7679         25.4858         25.1129         24.5204    
   7      27.8636         27.8592         27.8503         27.8370         27.8192         27.7969         27.7699         27.7381         27.7015         27.6598    
          27.6130         27.5609         27.5031         27.4396         27.3698         27.2935         27.2104         27.1197         27.0210         26.9135    
          26.7963         26.6681         26.5272         26.3714         26.1972         25.9991         25.7679         25.4858         25.1129         24.5204    
   8      27.8636         27.8592         27.8503         27.8370         27.8192         27.7969         27.7699         27.7381         27.7015         27.6598    
          27.6130         27.5609         27.5031         27.4396         27.3698         27.2935         27.2104         27.1197         27.0210         26.9135    
          26.7963         26.6681         26.5272         26.3714         26.1972         25.9991         25.7679         25.4858         25.1129         24.5204    
   9      27.8636         27.8592         27.8503         27.8370         27.8192         27.7969         27.7699         27.7381         27.7015         27.6598    
          27.6130         27.5609         27.5031         27.4396         27.3698         27.2935         27.2104         27.1197         27.0210         26.9135    
          26.7963         26.6681         26.5272         26.3714         26.1972         25.9991         25.7679         25.4858         25.1129         24.5204    
  10      27.8636         27.8592         27.8503         27.8370         27.8192         27.7969         27.7699         27.7381         27.7015         27.6598    
          27.6130         27.5609         27.5031         27.4395         27.3698         27.2935         27.2104         27.1197         27.0210         26.9135    
          26.7963         26.6681         26.5272         26.3714         26.1972         25.9991         25.7679         25.4858         25.1129         24.5204    
  11      27.8636         27.8592         27.8503         27.8370         27.8192         27.7969         27.7699         27.7381         27.7015         27.6598    
          27.6130         27.5609         27.5031         27.4395         27.3698         27.2935         27.2104         27.1197         27.0210         26.9135    
          26.7963         26.6681         26.5272         26.3714         26.1972         25.9991         25.7679         25.4858         25.1129         24.5204    
  12      27.8636         27.8592         27.8503         27.8370         27.8192         27.7969         27.7698         27.7381         27.7015         27.6598    
          27.6130         27.5609         27.5031         27.4395         27.3698         27.2935         27.2103         27.1197         27.0210         26.9135    
          26.7963         26.6681         26.5272         26.3714         26.1972         25.9991         25.7679         25.4858         25.1129         24.5204    
  13      27.8636         27.8592         27.8503         27.8370         27.8192         27.7969         27.7698         27.7381         27.7015         27.6598    
          27.6130         27.5609         27.5031         27.4395         27.3698         27.2935         27.2103         27.1197         27.0210         26.9135    
          26.7963         26.6681         26.5272         26.3714         26.1972         25.9991         25.7679         25.4858         25.1129         24.5204    
  14      27.8636         27.8592         27.8503         27.8370         27.8192         27.7969         27.7698         27.7381         27.7015         27.6598    
          27.6130         27.5609         27.5031         27.4395         27.3698         27.2935         27.2103         27.1197         27.0210         26.9135    
          26.7963         26.6681         26.5272         26.3714         26.1972         25.9991         25.7679         25.4858         25.1129         24.5204    
  15      27.8636         27.8592         27.8503         27.8370         27.8192         27.7969         27.7698         27.7381         27.7015         27.6598    
          27.6130         27.5609         27.5031         27.4395         27.3698         27.2935         27.2103         27.1197         27.0210         26.9135    
          26.7963         26.6681         26.5272         26.3714         26.1972         25.9991         25.7679         25.4858         25.1129         24.5204    
  16      27.8636         27.8592         27.8503         27.8370         27.8192         27.7969         27.7698         27.7381         27.7015         27.6598    
          27.6130         27.5609         27.5031         27.4395         27.3698         27.2935         27.2103         27.1197         27.0210         26.9135    
          26.7963         26.6681         26.5272         26.3714         26.1972         25.9991         25.7679         25.4858         25.1129         24.5204    
  17      27.8636         27.8592         27.8503         27.8370         27.8192         27.7969         27.7698         27.7381         27.7015         27.6598    
          27.6130         27.5609         27.5031         27.4395         27.3698         27.2935         27.2103         27.1197         27.0210         26.9135    
          26.7963         26.6681         26.5272         26.3714         26.1972         25.9991         25.7679         25.4858         25.1129         24.5204    
  18      27.8636         27.8592         27.8503         27.8370         27.8192         27.7969         27.7698         27.7381         27.7015         27.6598    
          27.6130         27.5609         27.5031         27.4395         27.3698         27.2935         27.2103         27.1197         27.0210         26.9135    
          26.7963         26.6681         26.5272         26.3714         26.1972         25.9991         25.7679         25.4858         25.1129         24.5204    
  19      27.8636         27.8592         27.8503         27.8370         27.8192         27.7969         27.7698         27.7381         27.7015         27.6598    
          27.6130         27.5609         27.5031         27.4395         27.3698         27.2935         27.2103         27.1197         27.0210         26.9135    
          26.7963         26.6681         26.5272         26.3714         26.1972         25.9991         25.7679         25.4858         25.1129         24.5204    
  20      27.8636         27.8592         27.8503         27.8370         27.8192         27.7969         27.7698         27.7381         27.7015         27.6598    
          27.6130         27.5609         27.5031         27.4395         27.3698         27.2935         27.2103         27.1197         27.0210         26.9135    
          26.7963         26.6681         26.5272         26.3714         26.1972         25.9991         25.7679         25.4858         25.1129         24.5204    
  21      27.8636         27.8592         27.8503         27.8370         27.8192         27.7969         27.7698         27.7381         27.7015         27.6598    
          27.6130         27.5609         27.5031         27.4395         27.3698         27.2935         27.2103         27.1197         27.0210         26.9135    
          26.7963         26.6681         26.5272         26.3714         26.1972         25.9991         25.7679         25.4858         25.1129         24.5204    
  22      27.8636         27.8592         27.8503         27.8370         27.8192         27.7969         27.7698         27.7381         27.7015         27.6598    
          27.6130         27.5609         27.5031         27.4395         27.3698         27.2935         27.2103         27.1197         27.0210         26.9135    
          26.7963         26.6681         26.5272         26.3714         26.1972         25.9991         25.7679         25.4858         25.1129         24.5204    
  23      27.8636         27.8592         27.8503         27.8370         27.8192         27.7969         27.7698         27.7381         27.7015         27.6598    
          27.6130         27.5609         27.5031         27.4395         27.3698         27.2935         27.2103         27.1197         27.0210         26.9135    
          26.7963         26.6681         26.5272         26.3714         26.1972         25.9991         25.7679         25.4858         25.1129         24.5204    
  24      27.8636         27.8592         27.8503         27.8370         27.8192         27.7969         27.7698         27.7381         27.7015         27.6598    
          27.6130         27.5609         27.5031         27.4395         27.3698         27.2935         27.2103         27.1197         27.0210         26.9135    
          26.7963         26.6681         26.5272         26.3714         26.1972         25.9991         25.7679         25.4858         25.1129         24.5204    
  25      27.8636         27.8592         27.8503         27.8370         27.8192         27.7969         27.7698         27.7381         27.7015         27.6598    
          27.6130         27.5609         27.5031         27.4395         27.3698         27.2935         27.2103         27.1197         27.0210         26.9135    
          26.7963         26.6681         26.5272         26.3714         26.1972         25.9991         25.7679         25.4858         25.1129         24.5204    
  26      27.8636         27.8592         27.8503         27.8370         27.8192         27.7969         27.7698         27.7381         27.7015         27.6598    
          27.6130         27.5609         27.5031         27.4395         27.3698         27.2935         27.2103         27.1197         27.0210         26.9135    
          26.7963         26.6681         26.5272         26.3714         26.1972         25.9991         25.7679         25.4858         25.1129         24.5204    
  27      27.8636         27.8592         27.8503         27.8370         27.8192         27.7969         27.7698         27.7381         27.7015         27.6598    
          27.6130         27.5609         27.5031         27.4395         27.3698         27.2935         27.2103         27.1197         27.0210         26.9135    
          26.7963         26.6681         26.5272         26.3714         26.1972         25.9991         25.7679         25.4858         25.1129         24.5204    
  28      27.8636         27.8592         27.8503         27.8370         27.8192         27.7969         27.7698         27.7381         27.7015         27.6598    
          27.6130         27.5609         27.5031         27.4395         27.3698         27.2935         27.2103         27.1197         27.0210         26.9135    
          26.7963         26.6681         26.5272         26.3714         26.1972         25.9991         25.7679         25.4858         25.1129         24.5204    
  29      27.8636         27.8592         27.8503         27.8370         27.8192         27.7969         27.7698         27.7381         27.7015         27.6598    
          27.6130         27.5609         27.5031         27.4395         27.3698         27.2935         27.2103         27.1197         27.0210         26.9135    
          26.7963         26.6681         26.5272         26.3714         26.1972         25.9991         25.7679         25.4858         25.1129         24.5204    
  30      27.8636         27.8592         27.8503         27.8370         27.8192         27.7969         27.7698         27.7381         27.7015         27.6598    
          27.6130         27.5609         27.5031         27.4395         27.3698         27.2935         27.2103         27.1197         27.0210         26.9135    
          26.7963         26.6681         26.5272         26.3714         26.1972         25.9991         25.7679         25.4858         25.1129         24.5204    

 HEAD WILL BE SAVED ON UNIT 1019 AT END OF TIME STEP    1, STRESS PERIOD   12



         TIME SUMMARY AT END OF TIME STEP    1 IN STRESS PERIOD   12
                    SECONDS     MINUTES      HOURS       DAYS        YEARS
                    -----------------------------------------------------------
   TIME STEP LENGTH 2.59200E+05  4320.0      72.000      3.0000     8.21355E-03
 STRESS PERIOD TIME 2.59200E+05  4320.0      72.000      3.0000     8.21355E-03
         TOTAL TIME 2.62656E+07 4.37760E+05  7296.0      304.00     0.83231    
 UBDSV1 SAVING           STO-SS ON UNIT   1018 AT TIME STEP      2, STRESS PERIOD     12
 UBDSV1 SAVING           STO-SY ON UNIT   1018 AT TIME STEP      2, STRESS PERIOD     12
 UBDSV1 SAVING     FLOW-JA-FACE ON UNIT   1018 AT TIME STEP      2, STRESS PERIOD     12
 UBDSV06 SAVING              RCH IN MODEL TEST_TRANS       PACKAGE TEST_TRANS      CONNECTED TO MODEL TEST_TRANS       PACKAGE RCHA             ON UNIT   1018 AT TIME STEP      2, STRESS PERIOD     12
 UBDSV06 SAVING              CHD IN MODEL TEST_TRANS       PACKAGE TEST_TRANS      CONNECTED TO MODEL TEST_TRANS       PACKAGE CHD              ON UNIT   1018 AT TIME STEP      2, STRESS PERIOD     12

 HEAD WILL BE SAVED ON UNIT 1019 AT END OF TIME STEP    2, STRESS PERIOD   12
 UBDSV1 SAVING           STO-SS ON UNIT   1018 AT TIME STEP      3, STRESS PERIOD     12
 UBDSV1 SAVING           STO-SY ON UNIT   1018 AT TIME STEP      3, STRESS PERIOD     12
 UBDSV1 SAVING     FLOW-JA-FACE ON UNIT   1018 AT TIME STEP      3, STRESS PERIOD     12
 UBDSV06 SAVING              RCH IN MODEL TEST_TRANS       PACKAGE TEST_TRANS      CONNECTED TO MODEL TEST_TRANS       PACKAGE RCHA             ON UNIT   1018 AT TIME STEP      3, STRESS PERIOD     12
 UBDSV06 SAVING              CHD IN MODEL TEST_TRANS       PACKAGE TEST_TRANS      CONNECTED TO MODEL TEST_TRANS       PACKAGE CHD              ON UNIT   1018 AT TIME STEP      3, STRESS PERIOD     12

 HEAD WILL BE SAVED ON UNIT 1019 AT END OF TIME STEP    3, STRESS PERIOD   12
 UBDSV1 SAVING           STO-SS ON UNIT   1018 AT TIME STEP      4, STRESS PERIOD     12
 UBDSV1 SAVING           STO-SY ON UNIT   1018 AT TIME STEP      4, STRESS PERIOD     12
 UBDSV1 SAVING     FLOW-JA-FACE ON UNIT   1018 AT TIME STEP      4, STRESS PERIOD     12
 UBDSV06 SAVING              RCH IN MODEL TEST_TRANS       PACKAGE TEST_TRANS      CONNECTED TO MODEL TEST_TRANS       PACKAGE RCHA             ON UNIT   1018 AT TIME STEP      4, STRESS PERIOD     12
 UBDSV06 SAVING              CHD IN MODEL TEST_TRANS       PACKAGE TEST_TRANS      CONNECTED TO MODEL TEST_TRANS       PACKAGE CHD              ON UNIT   1018 AT TIME STEP      4, STRESS PERIOD     12

 HEAD WILL BE SAVED ON UNIT 1019 AT END OF TIME STEP    4, STRESS PERIOD   12
 UBDSV1 SAVING           STO-SS ON UNIT   1018 AT TIME STEP      5, STRESS PERIOD     12
 UBDSV1 SAVING           STO-SY ON UNIT   1018 AT TIME STEP      5, STRESS PERIOD     12
 UBDSV1 SAVING     FLOW-JA-FACE ON UNIT   1018 AT TIME STEP      5, STRESS PERIOD     12
 UBDSV06 SAVING              RCH IN MODEL TEST_TRANS       PACKAGE TEST_TRANS      CONNECTED TO MODEL TEST_TRANS       PACKAGE RCHA             ON UNIT   1018 AT TIME STEP      5, STRESS PERIOD     12
 UBDSV06 SAVING              CHD IN MODEL TEST_TRANS       PACKAGE TEST_TRANS      CONNECTED TO MODEL TEST_TRANS       PACKAGE CHD              ON UNIT   1018 AT TIME STEP      5, STRESS PERIOD     12

 HEAD WILL BE SAVED ON UNIT 1019 AT END OF TIME STEP    5, STRESS PERIOD   12
 UBDSV1 SAVING           STO-SS ON UNIT   1018 AT TIME STEP      6, STRESS PERIOD     12
 UBDSV1 SAVING           STO-SY ON UNIT   1018 AT TIME STEP      6, STRESS PERIOD     12
 UBDSV1 SAVING     FLOW-JA-FACE ON UNIT   1018 AT TIME STEP      6, STRESS PERIOD     12
 UBDSV06 SAVING              RCH IN MODEL TEST_TRANS       PACKAGE TEST_TRANS      CONNECTED TO MODEL TEST_TRANS       PACKAGE RCHA             ON UNIT   1018 AT TIME STEP      6, STRESS PERIOD     12
 UBDSV06 SAVING              CHD IN MODEL TEST_TRANS       PACKAGE TEST_TRANS      CONNECTED TO MODEL TEST_TRANS       PACKAGE CHD              ON UNIT   1018 AT TIME STEP      6, STRESS PERIOD     12

 HEAD WILL BE SAVED ON UNIT 1019 AT END OF TIME STEP    6, STRESS PERIOD   12
 UBDSV1 SAVING           STO-SS ON UNIT   1018 AT TIME STEP      7, STRESS PERIOD     12
 UBDSV1 SAVING           STO-SY ON UNIT   1018 AT TIME STEP      7, STRESS PERIOD     12
 UBDSV1 SAVING     FLOW-JA-FACE ON UNIT   1018 AT TIME STEP      7, STRESS PERIOD     12
 UBDSV06 SAVING              RCH IN MODEL TEST_TRANS       PACKAGE TEST_TRANS      CONNECTED TO MODEL TEST_TRANS       PACKAGE RCHA             ON UNIT   1018 AT TIME STEP      7, STRESS PERIOD     12
 UBDSV06 SAVING              CHD IN MODEL TEST_TRANS       PACKAGE TEST_TRANS      CONNECTED TO MODEL TEST_TRANS       PACKAGE CHD              ON UNIT   1018 AT TIME STEP      7, STRESS PERIOD     12

 HEAD WILL BE SAVED ON UNIT 1019 AT END OF TIME STEP    7, STRESS PERIOD   12
 UBDSV1 SAVING           STO-SS ON UNIT   1018 AT TIME STEP      8, STRESS PERIOD     12
 UBDSV1 SAVING           STO-SY ON UNIT   1018 AT TIME STEP      8, STRESS PERIOD     12
 UBDSV1 SAVING     FLOW-JA-FACE ON UNIT   1018 AT TIME STEP      8, STRESS PERIOD     12
 UBDSV06 SAVING              RCH IN MODEL TEST_TRANS       PACKAGE TEST_TRANS      CONNECTED TO MODEL TEST_TRANS       PACKAGE RCHA             ON UNIT   1018 AT TIME STEP      8, STRESS PERIOD     12
 UBDSV06 SAVING              CHD IN MODEL TEST_TRANS       PACKAGE TEST_TRANS      CONNECTED TO MODEL TEST_TRANS       PACKAGE CHD              ON UNIT   1018 AT TIME STEP      8, STRESS PERIOD     12

 HEAD WILL BE SAVED ON UNIT 1019 AT END OF TIME STEP    8, STRESS PERIOD   12
 UBDSV1 SAVING           STO-SS ON UNIT   1018 AT TIME STEP      9, STRESS PERIOD     12
 UBDSV1 SAVING           STO-SY ON UNIT   1018 AT TIME STEP      9, STRESS PERIOD     12
 UBDSV1 SAVING     FLOW-JA-FACE ON UNIT   1018 AT TIME STEP      9, STRESS PERIOD     12
 UBDSV06 SAVING              RCH IN MODEL TEST_TRANS       PACKAGE TEST_TRANS      CONNECTED TO MODEL TEST_TRANS       PACKAGE RCHA             ON UNIT   1018 AT TIME STEP      9, STRESS PERIOD     12
 UBDSV06 SAVING              CHD IN MODEL TEST_TRANS       PACKAGE TEST_TRANS      CONNECTED TO MODEL TEST_TRANS       PACKAGE CHD              ON UNIT   1018 AT TIME STEP      9, STRESS PERIOD     12

 HEAD WILL BE SAVED ON UNIT 1019 AT END OF TIME STEP    9, STRESS PERIOD   12
 UBDSV1 SAVING           STO-SS ON UNIT   1018 AT TIME STEP     10, STRESS PERIOD     12
 UBDSV1 SAVING           STO-SY ON UNIT   1018 AT TIME STEP     10, STRESS PERIOD     12
 UBDSV1 SAVING     FLOW-JA-FACE ON UNIT   1018 AT TIME STEP     10, STRESS PERIOD     12
 UBDSV06 SAVING              RCH IN MODEL TEST_TRANS       PACKAGE TEST_TRANS      CONNECTED TO MODEL TEST_TRANS       PACKAGE RCHA             ON UNIT   1018 AT TIME STEP     10, STRESS PERIOD     12
 UBDSV06 SAVING              CHD IN MODEL TEST_TRANS       PACKAGE TEST_TRANS      CONNECTED TO MODEL TEST_TRANS       PACKAGE CHD              ON UNIT   1018 AT TIME STEP     10, STRESS PERIOD     12
1
  HEAD IN LAYER   1 AT END OF TIME STEP  10 IN STRESS PERIOD   12
  ---------------------------------------------------------------------------

                1               2               3               4               5               6               7               8               9              10
               11              12              13              14              15              16              17              18              19              20
               21              22              23              24              25              26              27              28              29              30
 ................................................................................................................................................................
   1      27.9724         27.9677         27.9583         27.9442         27.9253         27.9015         27.8727         27.8388         27.7996         27.7550    
          27.7047         27.6484         27.5859         27.5167         27.4406         27.3569         27.2651         27.1646         27.0545         26.9338    
          26.8014         26.6558         26.4953         26.3173         26.1188         25.8955         25.6407         25.3441         24.9861         24.5204    
   2      27.9724         27.9677         27.9583         27.9442         27.9253         27.9015         27.8727         27.8388         27.7996         27.7550    
          27.7047         27.6484         27.5859         27.5167         27.4406         27.3569         27.2651         27.1646         27.0545         26.9338    
          26.8014         26.6558         26.4953         26.3173         26.1188         25.8955         25.6407         25.3441         24.9861         24.5204    
   3      27.9724         27.9677         27.9583         27.9442         27.9253         27.9015         27.8727         27.8388         27.7996         27.7550    
          27.7047         27.6484         27.5859         27.5167         27.4406         27.3569         27.2651         27.1646         27.0545         26.9338    
          26.8014         26.6558         26.4953         26.3173         26.1188         25.8955         25.6407         25.3441         24.9861         24.5204    
   4      27.9724         27.9677         27.9583         27.9442         27.9253         27.9015         27.8727         27.8388         27.7996         27.7550    
          27.7047         27.6484         27.5859         27.5167         27.4406         27.3569         27.2651         27.1646         27.0545         26.9338    
          26.8014         26.6558         26.4953         26.3173         26.1188         25.8955         25.6407         25.3441         24.9861         24.5204    
   5      27.9724         27.9677         27.9583         27.9442         27.9253         27.9015         27.8727         27.8388         27.7996         27.7550    
          27.7047         27.6484         27.5859         27.5167         27.4406         27.3569         27.2651         27.1646         27.0545         26.9338    
          26.8014         26.6558         26.4953         26.3173         26.1188         25.8955         25.6407         25.3441         24.9861         24.5204    
   6      27.9724         27.9677         27.9583         27.9442         27.9253         27.9015         27.8727         27.8388         27.7996         27.7550    
          27.7047         27.6484         27.5859         27.5167         27.4406         27.3569         27.2651         27.1646         27.0545         26.9338    
          26.8014         26.6558         26.4953         26.3173         26.1188         25.8955         25.6407         25.3441         24.9861         24.5204    
   7      27.9724         27.9677         27.9583         27.9442         27.9253         27.9015         27.8727         27.8388         27.7996         27.7550    
          27.7047         27.6484         27.5859         27.5167         27.4406         27.3569         27.2651         27.1646         27.0545         26.9338    
          26.8014         26.6558         26.4953         26.3173         26.1188         25.8955         25.6407         25.3441         24.9861         24.5204    
   8      27.9724         27.9677         27.9583         27.9442         27.9253         27.9015         27.8727         27.8388         27.7996         27.7550    
          27.7047         27.6484         27.5859         27.5167         27.4406         27.3569         27.2651         27.1646         27.0545         26.9338    
          26.8014         26.6558         26.4953         26.3173         26.1188         25.8955         25.6407         25.3441         24.9861         24.5204    
   9      27.9724         27.9677         27.9583         27.9442         27.9253         27.9015         27.8727         27.8388         27.7996         27.7550    
          27.7047         27.6484         27.5859         27.5167         27.4406         27.3569         27.2651         27.1646         27.0545         26.9338    
          26.8014         26.6558         26.4953         26.3173         26.1188         25.8955         25.6407         25.3441         24.9861         24.5204    
  10      27.9724         27.9677         27.9583         27.9442         27.9253         27.9015         27.8727         27.8388         27.7996         27.7550    
          27.7047         27.6484         27.5859         27.5167         27.4406         27.3569         27.2651         27.1646         27.0545         26.9338    
          26.8014         26.6558         26.4953         26.3173         26.1188         25.8955         25.6407         25.3441         24.9861         24.5204    
  11      27.9724         27.9677         27.9583         27.9442         27.9253         27.9015         27.8727         27.8388         27.7996         27.7550    
          27.7047         27.6484         27.5859         27.5167         27.4406         27.3569         27.2651         27.1646         27.0545         26.9338    
          26.8014         26.6558         26.4953         26.3173         26.1188         25.8955         25.6407         25.3441         24.9861         24.5204    
  12      27.9724         27.9677         27.9583         27.9442         27.9253         27.9015         27.8727         27.8388         27.7996         27.7550    
          27.7047         27.6484         27.5859         27.5167         27.4406         27.3569         27.2651         27.1646         27.0545         26.9338    
          26.8014         26.6558         26.4953         26.3173         26.1188         25.8955         25.6407         25.3441         24.9861         24.5204    
  13      27.9724         27.9677         27.9583         27.9442         27.9253         27.9015         27.8727         27.8388         27.7996         27.7550    
          27.7047         27.6484         27.5859         27.5167         27.4406         27.3569         27.2651         27.1646         27.0545         26.9338    
          26.8014         26.6558         26.4953         26.3173         26.1188         25.8955         25.6407         25.3441         24.9861         24.5204    
  14      27.9724         27.9677         27.9583         27.9442         27.9253         27.9015         27.8727         27.8388         27.7996         27.7550    
          27.7047         27.6484         27.5859         27.5167         27.4406         27.3569         27.2651         27.1646         27.0545         26.9338    
          26.8014         26.6558         26.4953         26.3173         26.1188         25.8955         25.6407         25.3441         24.9861         24.5204    
  15      27.9724         27.9677         27.9583         27.9442         27.9253         27.9015         27.8727         27.8388         27.7996         27.7550    
          27.7047         27.6484         27.5859         27.5167         27.4406         27.3569         27.2651         27.1646         27.0545         26.9338    
          26.8014         26.6558         26.4953         26.3173         26.1188         25.8955         25.6407         25.3441         24.9861         24.5204    
  16      27.9724         27.9677         27.9583         27.9442         27.9253         27.9015         27.8727         27.8388         27.7996         27.7550    
          27.7047         27.6484         27.5859         27.5167         27.4406         27.3569         27.2651         27.1646         27.0545         26.9338    
          26.8014         26.6558         26.4953         26.3173         26.1188         25.8955         25.6407         25.3441         24.9861         24.5204    
  17      27.9724         27.9677         27.9583         27.9442         27.9253         27.9015         27.8727         27.8388         27.7996         27.7550    
          27.7047         27.6484         27.5859         27.5167         27.4406         27.3569         27.2651         27.1646         27.0545         26.9338    
          26.8014         26.6558         26.4953         26.3173         26.1188         25.8955         25.6407         25.3441         24.9861         24.5204    
  18      27.9724         27.9677         27.9583         27.9442         27.9253         27.9015         27.8727         27.8388         27.7996         27.7550    
          27.7047         27.6484         27.5859         27.5167         27.4406         27.3569         27.2651         27.1646         27.0545         26.9338    
          26.8014         26.6558         26.4953         26.3173         26.1188         25.8955         25.6407         25.3441         24.9861         24.5204    
  19      27.9724         27.9677         27.9583         27.9442         27.9253         27.9015         27.8727         27.8388         27.7996         27.7550    
          27.7047         27.6484         27.5859         27.5167         27.4406         27.3569         27.2651         27.1646         27.0545         26.9338    
          26.8014         26.6558         26.4953         26.3173         26.1188         25.8955         25.6407         25.3441         24.9861         24.5204    
  20      27.9724         27.9677         27.9583         27.9442         27.9253         27.9015         27.8727         27.8388         27.7996         27.7550    
          27.7047         27.6484         27.5859         27.5167         27.4406         27.3569         27.2651         27.1646         27.0545         26.9338    
          26.8014         26.6558         26.4953         26.3173         26.1188         25.8955         25.6407         25.3441         24.9861         24.5204    
  21      27.9724         27.9677         27.9583         27.9442         27.9253         27.9015         27.8727         27.8388         27.7996         27.7550    
          27.7047         27.6484         27.5859         27.5167         27.4406         27.3569         27.2651         27.1646         27.0545         26.9338    
          26.8014         26.6558         26.4952         26.3173         26.1188         25.8955         25.6407         25.3441         24.9861         24.5204    
  22      27.9724         27.9677         27.9583         27.9442         27.9253         27.9015         27.8727         27.8388         27.7996         27.7550    
          27.7047         27.6484         27.5859         27.5167         27.4406         27.3569         27.2651         27.1646         27.0545         26.9338    
          26.8014         26.6558         26.4952         26.3173         26.1188         25.8955         25.6407         25.3441         24.9861         24.5204    
  23      27.9724         27.9677         27.9583         27.9442         27.9253         27.9015         27.8727         27.8388         27.7996         27.7550    
          27.7047         27.6484         27.5859         27.5167         27.4406         27.3569         27.2651         27.1646         27.0545         26.9338    
          26.8014         26.6558         26.4952         26.3173         26.1188         25.8955         25.6407         25.3441         24.9861         24.5204    
  24      27.9724         27.9677         27.9583         27.9442         27.9253         27.9015         27.8727         27.8388         27.7996         27.7550    
          27.7047         27.6484         27.5859         27.5167         27.4406         27.3569         27.2651         27.1646         27.0545         26.9338    
          26.8014         26.6558         26.4952         26.3173         26.1188         25.8955         25.6407         25.3441         24.9861         24.5204    
  25      27.9724         27.9677         27.9583         27.9442         27.9253         27.9015         27.8727         27.8388         27.7996         27.7550    
          27.7047         27.6484         27.5859         27.5167         27.4406         27.3569         27.2651         27.1646         27.0545         26.9338    
          26.8014         26.6558         26.4952         26.3173         26.1188         25.8955         25.6407         25.3441         24.9861         24.5204    
  26      27.9724         27.9677         27.9583         27.9442         27.9253         27.9015         27.8727         27.8388         27.7996         27.7550    
          27.7047         27.6484         27.5859         27.5167         27.4406         27.3569         27.2651         27.1646         27.0545         26.9338    
          26.8014         26.6558         26.4952         26.3173         26.1188         25.8955         25.6407         25.3441         24.9861         24.5204    
  27      27.9724         27.9677         27.9583         27.9442         27.9253         27.9015         27.8727         27.8388         27.7996         27.7550    
          27.7047         27.6484         27.5859         27.5167         27.4406         27.3569         27.2651         27.1646         27.0545         26.9338    
          26.8014         26.6558         26.4952         26.3173         26.1188         25.8955         25.6407         25.3441         24.9861         24.5204    
  28      27.9724         27.9677         27.9583         27.9442         27.9253         27.9015         27.8727         27.8388         27.7996         27.7550    
          27.7047         27.6484         27.5859         27.5167         27.4406         27.3569         27.2651         27.1646         27.0545         26.9338    
          26.8014         26.6558         26.4952         26.3173         26.1188         25.8955         25.6407         25.3441         24.9861         24.5204    
  29      27.9724         27.9677         27.9583         27.9442         27.9253         27.9015         27.8727         27.8388         27.7996         27.7550    
          27.7047         27.6484         27.5859         27.5167         27.4406         27.3569         27.2651         27.1646         27.0545         26.9338    
          26.8014         26.6558         26.4952         26.3173         26.1188         25.8955         25.6407         25.3441         24.9861         24.5204    
  30      27.9724         27.9677         27.9583         27.9442         27.9253         27.9015         27.8727         27.8388         27.7996         27.7550    
          27.7047         27.6484         27.5859         27.5167         27.4406         27.3569         27.2651         27.1646         27.0545         26.9338    
          26.8014         26.6558         26.4952         26.3173         26.1188         25.8955         25.6407         25.3441         24.9861         24.5204    

 HEAD WILL BE SAVED ON UNIT 1019 AT END OF TIME STEP   10, STRESS PERIOD   12


  VOLUME BUDGET FOR ENTIRE MODEL AT END OF TIME STEP   10, STRESS PERIOD  12
  ---------------------------------------------------------------------------------------------------

     CUMULATIVE VOLUME      L**3       RATES FOR THIS TIME STEP      L**3/T          PACKAGE NAME    
     ------------------                 ------------------------                     ----------------

           IN:                                      IN:
           ---                                      ---
              STO-SS =          20.2287                STO-SS =       2.3207E-03     STORAGE         
              STO-SY =       12911.0568                STO-SY =           1.6327     STORAGE         
                 RCH =       52795.9083                   RCH =         238.3565     RCHA            
                 CHD =         597.9608                   CHD =           0.0000     CHD             

            TOTAL IN =       66325.1546              TOTAL IN =         239.9916

          OUT:                                     OUT:
          ----                                     ----
              STO-SS =          14.0990                STO-SS =       5.1959E-02     STORAGE         
              STO-SY =        9199.8868                STO-SY =          32.0212     STORAGE         
                 RCH =           0.0000                   RCH =           0.0000     RCHA            
                 CHD =       57110.9059                   CHD =         207.9186     CHD             

           TOTAL OUT =       66324.8916             TOTAL OUT =         239.9918

            IN - OUT =           0.2629              IN - OUT =      -2.1451E-04

 PERCENT DISCREPANCY =           0.00     PERCENT DISCREPANCY =          -0.00




         TIME SUMMARY AT END OF TIME STEP   10 IN STRESS PERIOD   12
                    SECONDS     MINUTES      HOURS       DAYS        YEARS
                    -----------------------------------------------------------
   TIME STEP LENGTH 2.59200E+05  4320.0      72.000      3.0000     8.21355E-03
 STRESS PERIOD TIME 2.59200E+06  43200.      720.00      30.000     8.21355E-02
         TOTAL TIME 2.85984E+07 4.76640E+05  7944.0      331.00     0.90623    

 OUTPUT CONTROL FOR STRESS PERIOD 13 IS REPEATED USING SETTINGS FROM A PREVIOUS STRESS PERIOD.


 STRESS PERIOD 13 IS TRANSIENT


                 RECHARGE =  0.2739730E-02
 UBDSV1 SAVING           STO-SS ON UNIT   1018 AT TIME STEP      1, STRESS PERIOD     13
 UBDSV1 SAVING           STO-SY ON UNIT   1018 AT TIME STEP      1, STRESS PERIOD     13
 UBDSV1 SAVING     FLOW-JA-FACE ON UNIT   1018 AT TIME STEP      1, STRESS PERIOD     13
 UBDSV06 SAVING              RCH IN MODEL TEST_TRANS       PACKAGE TEST_TRANS      CONNECTED TO MODEL TEST_TRANS       PACKAGE RCHA             ON UNIT   1018 AT TIME STEP      1, STRESS PERIOD     13
 UBDSV06 SAVING              CHD IN MODEL TEST_TRANS       PACKAGE TEST_TRANS      CONNECTED TO MODEL TEST_TRANS       PACKAGE CHD              ON UNIT   1018 AT TIME STEP      1, STRESS PERIOD     13
1
  HEAD IN LAYER   1 AT END OF TIME STEP   1 IN STRESS PERIOD   13
  ---------------------------------------------------------------------------

                1               2               3               4               5               6               7               8               9              10
               11              12              13              14              15              16              17              18              19              20
               21              22              23              24              25              26              27              28              29              30
 ................................................................................................................................................................
   1      27.9830         27.9783         27.9688         27.9546         27.9355         27.9115         27.8824         27.8482         27.8087         27.7637    
          27.7129         27.6561         27.5930         27.5233         27.4465         27.3621         27.2696         27.1682         27.0571         26.9354    
          26.8018         26.6547         26.4921         26.3112         26.1081         25.8768         25.6072         25.2804         24.8518         23.4467    
   2      27.9830         27.9783         27.9688         27.9546         27.9355         27.9115         27.8824         27.8482         27.8087         27.7637    
          27.7129         27.6561         27.5930         27.5233         27.4465         27.3621         27.2696         27.1682         27.0571         26.9354    
          26.8018         26.6547         26.4921         26.3112         26.1081         25.8768         25.6072         25.2804         24.8518         23.4467    
   3      27.9830         27.9783         27.9688         27.9546         27.9355         27.9115         27.8824         27.8482         27.8087         27.7637    
          27.7129         27.6561         27.5930         27.5233         27.4465         27.3621         27.2696         27.1682         27.0571         26.9354    
          26.8018         26.6547         26.4921         26.3112         26.1081         25.8768         25.6072         25.2804         24.8518         23.4467    
   4      27.9830         27.9783         27.9688         27.9546         27.9355         27.9115         27.8824         27.8482         27.8087         27.7637    
          27.7129         27.6561         27.5930         27.5233         27.4465         27.3621         27.2696         27.1682         27.0571         26.9354    
          26.8018         26.6547         26.4921         26.3112         26.1081         25.8768         25.6072         25.2804         24.8518         23.4467    
   5      27.9830         27.9783         27.9688         27.9546         27.9355         27.9115         27.8824         27.8482         27.8087         27.7637    
          27.7129         27.6561         27.5930         27.5233         27.4465         27.3621         27.2696         27.1682         27.0571         26.9354    
          26.8018         26.6547         26.4921         26.3112         26.1081         25.8768         25.6072         25.2804         24.8518         23.4467    
   6      27.9830         27.9783         27.9688         27.9546         27.9355         27.9115         27.8824         27.8482         27.8087         27.7637    
          27.7129         27.6561         27.5930         27.5233         27.4465         27.3621         27.2696         27.1682         27.0571         26.9354    
          26.8018         26.6547         26.4921         26.3112         26.1081         25.8768         25.6072         25.2804         24.8518         23.4467    
   7      27.9830         27.9783         27.9688         27.9546         27.9355         27.9115         27.8824         27.8482         27.8087         27.7637    
          27.7129         27.6561         27.5930         27.5233         27.4465         27.3621         27.2696         27.1682         27.0571         26.9354    
          26.8018         26.6547         26.4921         26.3112         26.1081         25.8768         25.6072         25.2804         24.8518         23.4467    
   8      27.9830         27.9783         27.9688         27.9546         27.9355         27.9115         27.8824         27.8482         27.8087         27.7637    
          27.7129         27.6561         27.5930         27.5233         27.4465         27.3621         27.2696         27.1682         27.0571         26.9354    
          26.8018         26.6547         26.4921         26.3112         26.1081         25.8768         25.6072         25.2804         24.8518         23.4467    
   9      27.9830         27.9783         27.9688         27.9546         27.9355         27.9115         27.8824         27.8482         27.8087         27.7637    
          27.7129         27.6561         27.5930         27.5233         27.4465         27.3621         27.2696         27.1682         27.0571         26.9354    
          26.8018         26.6547         26.4921         26.3112         26.1081         25.8768         25.6072         25.2804         24.8518         23.4467    
  10      27.9830         27.9783         27.9688         27.9546         27.9355         27.9115         27.8824         27.8482         27.8087         27.7637    
          27.7129         27.6561         27.5930         27.5233         27.4465         27.3621         27.2696         27.1682         27.0571         26.9354    
          26.8018         26.6547         26.4921         26.3112         26.1081         25.8768         25.6072         25.2804         24.8518         23.4467    
  11      27.9830         27.9783         27.9688         27.9546         27.9355         27.9115         27.8824         27.8482         27.8087         27.7637    
          27.7129         27.6561         27.5930         27.5233         27.4465         27.3621         27.2696         27.1682         27.0571         26.9354    
          26.8018         26.6547         26.4921         26.3112         26.1081         25.8768         25.6072         25.2804         24.8518         23.4467    
  12      27.9830         27.9783         27.9688         27.9546         27.9355         27.9115         27.8824         27.8482         27.8087         27.7637    
          27.7129         27.6561         27.5930         27.5233         27.4465         27.3621         27.2696         27.1682         27.0571         26.9354    
          26.8018         26.6547         26.4921         26.3112         26.1081         25.8768         25.6072         25.2804         24.8518         23.4467    
  13      27.9830         27.9783         27.9688         27.9546         27.9355         27.9115         27.8824         27.8482         27.8087         27.7637    
          27.7129         27.6561         27.5930         27.5233         27.4465         27.3621         27.2696         27.1682         27.0571         26.9354    
          26.8018         26.6547         26.4921         26.3112         26.1081         25.8768         25.6072         25.2804         24.8518         23.4467    
  14      27.9830         27.9783         27.9688         27.9546         27.9355         27.9115         27.8824         27.8482         27.8087         27.7637    
          27.7129         27.6561         27.5930         27.5233         27.4465         27.3621         27.2695         27.1682         27.0571         26.9354    
          26.8018         26.6547         26.4921         26.3112         26.1081         25.8768         25.6072         25.2804         24.8518         23.4467    
  15      27.9830         27.9783         27.9688         27.9546         27.9355         27.9115         27.8824         27.8482         27.8087         27.7637    
          27.7129         27.6561         27.5930         27.5233         27.4465         27.3621         27.2695         27.1682         27.0571         26.9354    
          26.8018         26.6547         26.4921         26.3112         26.1081         25.8768         25.6072         25.2804         24.8518         23.4467    
  16      27.9830         27.9783         27.9688         27.9546         27.9355         27.9115         27.8824         27.8482         27.8087         27.7637    
          27.7129         27.6561         27.5930         27.5233         27.4465         27.3621         27.2695         27.1682         27.0571         26.9354    
          26.8018         26.6547         26.4921         26.3112         26.1081         25.8768         25.6072         25.2804         24.8518         23.4467    
  17      27.9830         27.9783         27.9688         27.9546         27.9355         27.9115         27.8824         27.8482         27.8087         27.7637    
          27.7129         27.6561         27.5930         27.5233         27.4465         27.3621         27.2695         27.1682         27.0571         26.9354    
          26.8018         26.6547         26.4921         26.3112         26.1081         25.8768         25.6072         25.2804         24.8518         23.4467    
  18      27.9830         27.9783         27.9688         27.9546         27.9355         27.9115         27.8824         27.8482         27.8087         27.7637    
          27.7129         27.6561         27.5930         27.5233         27.4465         27.3621         27.2695         27.1682         27.0571         26.9354    
          26.8018         26.6547         26.4921         26.3112         26.1081         25.8768         25.6072         25.2804         24.8518         23.4467    
  19      27.9830         27.9783         27.9688         27.9546         27.9355         27.9115         27.8824         27.8482         27.8087         27.7637    
          27.7129         27.6561         27.5930         27.5233         27.4465         27.3621         27.2695         27.1682         27.0571         26.9354    
          26.8018         26.6547         26.4921         26.3112         26.1081         25.8768         25.6072         25.2804         24.8518         23.4467    
  20      27.9830         27.9783         27.9688         27.9546         27.9355         27.9115         27.8824         27.8482         27.8087         27.7637    
          27.7129         27.6561         27.5930         27.5233         27.4465         27.3621         27.2695         27.1682         27.0571         26.9354    
          26.8018         26.6547         26.4921         26.3112         26.1081         25.8768         25.6072         25.2804         24.8518         23.4467    
  21      27.9830         27.9783         27.9688         27.9546         27.9355         27.9115         27.8824         27.8482         27.8087         27.7637    
          27.7129         27.6561         27.5930         27.5233         27.4465         27.3621         27.2695         27.1682         27.0571         26.9354    
          26.8018         26.6547         26.4921         26.3112         26.1081         25.8768         25.6072         25.2804         24.8518         23.4467    
  22      27.9830         27.9783         27.9688         27.9546         27.9355         27.9115         27.8824         27.8482         27.8087         27.7637    
          27.7129         27.6561         27.5930         27.5233         27.4465         27.3621         27.2695         27.1682         27.0571         26.9354    
          26.8018         26.6547         26.4921         26.3112         26.1081         25.8768         25.6072         25.2804         24.8518         23.4467    
  23      27.9830         27.9783         27.9688         27.9546         27.9355         27.9115         27.8824         27.8482         27.8087         27.7637    
          27.7129         27.6561         27.5930         27.5233         27.4465         27.3621         27.2695         27.1682         27.0571         26.9354    
          26.8018         26.6547         26.4921         26.3112         26.1081         25.8768         25.6072         25.2804         24.8518         23.4467    
  24      27.9830         27.9783         27.9688         27.9546         27.9355         27.9115         27.8824         27.8482         27.8087         27.7637    
          27.7129         27.6561         27.5930         27.5233         27.4465         27.3621         27.2695         27.1682         27.0571         26.9354    
          26.8018         26.6547         26.4921         26.3112         26.1081         25.8768         25.6072         25.2804         24.8518         23.4467    
  25      27.9830         27.9783         27.9688         27.9546         27.9355         27.9115         27.8824         27.8482         27.8087         27.7637    
          27.7129         27.6561         27.5930         27.5233         27.4465         27.3621         27.2695         27.1682         27.0571         26.9354    
          26.8018         26.6547         26.4921         26.3112         26.1081         25.8768         25.6072         25.2804         24.8518         23.4467    
  26      27.9830         27.9783         27.9688         27.9546         27.9355         27.9115         27.8824         27.8482         27.8087         27.7637    
          27.7129         27.6561         27.5930         27.5233         27.4465         27.3621         27.2695         27.1682         27.0571         26.9354    
          26.8018         26.6547         26.4921         26.3112         26.1081         25.8768         25.6072         25.2804         24.8518         23.4467    
  27      27.9830         27.9783         27.9688         27.9546         27.9355         27.9115         27.8824         27.8482         27.8087         27.7637    
          27.7129         27.6561         27.5930         27.5233         27.4465         27.3621         27.2695         27.1682         27.0571         26.9354    
          26.8018         26.6547         26.4921         26.3112         26.1081         25.8768         25.6072         25.2804         24.8518         23.4467    
  28      27.9830         27.9783         27.9688         27.9546         27.9355         27.9115         27.8824         27.8482         27.8087         27.7637    
          27.7129         27.6561         27.5930         27.5233         27.4465         27.3621         27.2695         27.1682         27.0571         26.9354    
          26.8018         26.6547         26.4921         26.3112         26.1081         25.8768         25.6072         25.2804         24.8518         23.4467    
  29      27.9830         27.9783         27.9688         27.9546         27.9355         27.9115         27.8824         27.8482         27.8087         27.7637    
          27.7129         27.6561         27.5930         27.5233         27.4465         27.3621         27.2695         27.1682         27.0571         26.9354    
          26.8018         26.6547         26.4921         26.3112         26.1081         25.8768         25.6072         25.2804         24.8518         23.4467    
  30      27.9830         27.9783         27.9688         27.9546         27.9355         27.9115         27.8824         27.8482         27.8087         27.7637    
          27.7129         27.6561         27.5930         27.5233         27.4465         27.3621         27.2695         27.1682         27.0571         26.9354    
          26.8018         26.6547         26.4921         26.3112         26.1081         25.8768         25.6072         25.2804         24.8518         23.4467    

 HEAD WILL BE SAVED ON UNIT 1019 AT END OF TIME STEP    1, STRESS PERIOD   13



         TIME SUMMARY AT END OF TIME STEP    1 IN STRESS PERIOD   13
                    SECONDS     MINUTES      HOURS       DAYS        YEARS
                    -----------------------------------------------------------
   TIME STEP LENGTH 2.59200E+05  4320.0      72.000      3.0000     8.21355E-03
 STRESS PERIOD TIME 2.59200E+05  4320.0      72.000      3.0000     8.21355E-03
         TOTAL TIME 2.88576E+07 4.80960E+05  8016.0      334.00     0.91444    
 UBDSV1 SAVING           STO-SS ON UNIT   1018 AT TIME STEP      2, STRESS PERIOD     13
 UBDSV1 SAVING           STO-SY ON UNIT   1018 AT TIME STEP      2, STRESS PERIOD     13
 UBDSV1 SAVING     FLOW-JA-FACE ON UNIT   1018 AT TIME STEP      2, STRESS PERIOD     13
 UBDSV06 SAVING              RCH IN MODEL TEST_TRANS       PACKAGE TEST_TRANS      CONNECTED TO MODEL TEST_TRANS       PACKAGE RCHA             ON UNIT   1018 AT TIME STEP      2, STRESS PERIOD     13
 UBDSV06 SAVING              CHD IN MODEL TEST_TRANS       PACKAGE TEST_TRANS      CONNECTED TO MODEL TEST_TRANS       PACKAGE CHD              ON UNIT   1018 AT TIME STEP      2, STRESS PERIOD     13

 HEAD WILL BE SAVED ON UNIT 1019 AT END OF TIME STEP    2, STRESS PERIOD   13
 UBDSV1 SAVING           STO-SS ON UNIT   1018 AT TIME STEP      3, STRESS PERIOD     13
 UBDSV1 SAVING           STO-SY ON UNIT   1018 AT TIME STEP      3, STRESS PERIOD     13
 UBDSV1 SAVING     FLOW-JA-FACE ON UNIT   1018 AT TIME STEP      3, STRESS PERIOD     13
 UBDSV06 SAVING              RCH IN MODEL TEST_TRANS       PACKAGE TEST_TRANS      CONNECTED TO MODEL TEST_TRANS       PACKAGE RCHA             ON UNIT   1018 AT TIME STEP      3, STRESS PERIOD     13
 UBDSV06 SAVING              CHD IN MODEL TEST_TRANS       PACKAGE TEST_TRANS      CONNECTED TO MODEL TEST_TRANS       PACKAGE CHD              ON UNIT   1018 AT TIME STEP      3, STRESS PERIOD     13

 HEAD WILL BE SAVED ON UNIT 1019 AT END OF TIME STEP    3, STRESS PERIOD   13
 UBDSV1 SAVING           STO-SS ON UNIT   1018 AT TIME STEP      4, STRESS PERIOD     13
 UBDSV1 SAVING           STO-SY ON UNIT   1018 AT TIME STEP      4, STRESS PERIOD     13
 UBDSV1 SAVING     FLOW-JA-FACE ON UNIT   1018 AT TIME STEP      4, STRESS PERIOD     13
 UBDSV06 SAVING              RCH IN MODEL TEST_TRANS       PACKAGE TEST_TRANS      CONNECTED TO MODEL TEST_TRANS       PACKAGE RCHA             ON UNIT   1018 AT TIME STEP      4, STRESS PERIOD     13
 UBDSV06 SAVING              CHD IN MODEL TEST_TRANS       PACKAGE TEST_TRANS      CONNECTED TO MODEL TEST_TRANS       PACKAGE CHD              ON UNIT   1018 AT TIME STEP      4, STRESS PERIOD     13

 HEAD WILL BE SAVED ON UNIT 1019 AT END OF TIME STEP    4, STRESS PERIOD   13
 UBDSV1 SAVING           STO-SS ON UNIT   1018 AT TIME STEP      5, STRESS PERIOD     13
 UBDSV1 SAVING           STO-SY ON UNIT   1018 AT TIME STEP      5, STRESS PERIOD     13
 UBDSV1 SAVING     FLOW-JA-FACE ON UNIT   1018 AT TIME STEP      5, STRESS PERIOD     13
 UBDSV06 SAVING              RCH IN MODEL TEST_TRANS       PACKAGE TEST_TRANS      CONNECTED TO MODEL TEST_TRANS       PACKAGE RCHA             ON UNIT   1018 AT TIME STEP      5, STRESS PERIOD     13
 UBDSV06 SAVING              CHD IN MODEL TEST_TRANS       PACKAGE TEST_TRANS      CONNECTED TO MODEL TEST_TRANS       PACKAGE CHD              ON UNIT   1018 AT TIME STEP      5, STRESS PERIOD     13

 HEAD WILL BE SAVED ON UNIT 1019 AT END OF TIME STEP    5, STRESS PERIOD   13
 UBDSV1 SAVING           STO-SS ON UNIT   1018 AT TIME STEP      6, STRESS PERIOD     13
 UBDSV1 SAVING           STO-SY ON UNIT   1018 AT TIME STEP      6, STRESS PERIOD     13
 UBDSV1 SAVING     FLOW-JA-FACE ON UNIT   1018 AT TIME STEP      6, STRESS PERIOD     13
 UBDSV06 SAVING              RCH IN MODEL TEST_TRANS       PACKAGE TEST_TRANS      CONNECTED TO MODEL TEST_TRANS       PACKAGE RCHA             ON UNIT   1018 AT TIME STEP      6, STRESS PERIOD     13
 UBDSV06 SAVING              CHD IN MODEL TEST_TRANS       PACKAGE TEST_TRANS      CONNECTED TO MODEL TEST_TRANS       PACKAGE CHD              ON UNIT   1018 AT TIME STEP      6, STRESS PERIOD     13

 HEAD WILL BE SAVED ON UNIT 1019 AT END OF TIME STEP    6, STRESS PERIOD   13
 UBDSV1 SAVING           STO-SS ON UNIT   1018 AT TIME STEP      7, STRESS PERIOD     13
 UBDSV1 SAVING           STO-SY ON UNIT   1018 AT TIME STEP      7, STRESS PERIOD     13
 UBDSV1 SAVING     FLOW-JA-FACE ON UNIT   1018 AT TIME STEP      7, STRESS PERIOD     13
 UBDSV06 SAVING              RCH IN MODEL TEST_TRANS       PACKAGE TEST_TRANS      CONNECTED TO MODEL TEST_TRANS       PACKAGE RCHA             ON UNIT   1018 AT TIME STEP      7, STRESS PERIOD     13
 UBDSV06 SAVING              CHD IN MODEL TEST_TRANS       PACKAGE TEST_TRANS      CONNECTED TO MODEL TEST_TRANS       PACKAGE CHD              ON UNIT   1018 AT TIME STEP      7, STRESS PERIOD     13

 HEAD WILL BE SAVED ON UNIT 1019 AT END OF TIME STEP    7, STRESS PERIOD   13
 UBDSV1 SAVING           STO-SS ON UNIT   1018 AT TIME STEP      8, STRESS PERIOD     13
 UBDSV1 SAVING           STO-SY ON UNIT   1018 AT TIME STEP      8, STRESS PERIOD     13
 UBDSV1 SAVING     FLOW-JA-FACE ON UNIT   1018 AT TIME STEP      8, STRESS PERIOD     13
 UBDSV06 SAVING              RCH IN MODEL TEST_TRANS       PACKAGE TEST_TRANS      CONNECTED TO MODEL TEST_TRANS       PACKAGE RCHA             ON UNIT   1018 AT TIME STEP      8, STRESS PERIOD     13
 UBDSV06 SAVING              CHD IN MODEL TEST_TRANS       PACKAGE TEST_TRANS      CONNECTED TO MODEL TEST_TRANS       PACKAGE CHD              ON UNIT   1018 AT TIME STEP      8, STRESS PERIOD     13

 HEAD WILL BE SAVED ON UNIT 1019 AT END OF TIME STEP    8, STRESS PERIOD   13
 UBDSV1 SAVING           STO-SS ON UNIT   1018 AT TIME STEP      9, STRESS PERIOD     13
 UBDSV1 SAVING           STO-SY ON UNIT   1018 AT TIME STEP      9, STRESS PERIOD     13
 UBDSV1 SAVING     FLOW-JA-FACE ON UNIT   1018 AT TIME STEP      9, STRESS PERIOD     13
 UBDSV06 SAVING              RCH IN MODEL TEST_TRANS       PACKAGE TEST_TRANS      CONNECTED TO MODEL TEST_TRANS       PACKAGE RCHA             ON UNIT   1018 AT TIME STEP      9, STRESS PERIOD     13
 UBDSV06 SAVING              CHD IN MODEL TEST_TRANS       PACKAGE TEST_TRANS      CONNECTED TO MODEL TEST_TRANS       PACKAGE CHD              ON UNIT   1018 AT TIME STEP      9, STRESS PERIOD     13

 HEAD WILL BE SAVED ON UNIT 1019 AT END OF TIME STEP    9, STRESS PERIOD   13
 UBDSV1 SAVING           STO-SS ON UNIT   1018 AT TIME STEP     10, STRESS PERIOD     13
 UBDSV1 SAVING           STO-SY ON UNIT   1018 AT TIME STEP     10, STRESS PERIOD     13
 UBDSV1 SAVING     FLOW-JA-FACE ON UNIT   1018 AT TIME STEP     10, STRESS PERIOD     13
 UBDSV06 SAVING              RCH IN MODEL TEST_TRANS       PACKAGE TEST_TRANS      CONNECTED TO MODEL TEST_TRANS       PACKAGE RCHA             ON UNIT   1018 AT TIME STEP     10, STRESS PERIOD     13
 UBDSV06 SAVING              CHD IN MODEL TEST_TRANS       PACKAGE TEST_TRANS      CONNECTED TO MODEL TEST_TRANS       PACKAGE CHD              ON UNIT   1018 AT TIME STEP     10, STRESS PERIOD     13
1
  HEAD IN LAYER   1 AT END OF TIME STEP  10 IN STRESS PERIOD   13
  ---------------------------------------------------------------------------

                1               2               3               4               5               6               7               8               9              10
               11              12              13              14              15              16              17              18              19              20
               21              22              23              24              25              26              27              28              29              30
 ................................................................................................................................................................
   1      28.0635         28.0584         28.0482         28.0328         28.0122         27.9862         27.9548         27.9178         27.8750         27.8263    
          27.7713         27.7099         27.6415         27.5659         27.4826         27.3910         27.2905         27.1803         27.0595         26.9269    
          26.7811         26.6205         26.4426         26.2446         26.0222         25.7693         25.4764         25.1263         24.6810         23.4467    
   2      28.0635         28.0584         28.0482         28.0328         28.0122         27.9862         27.9548         27.9178         27.8750         27.8263    
          27.7713         27.7099         27.6415         27.5659         27.4826         27.3910         27.2905         27.1803         27.0595         26.9269    
          26.7811         26.6204         26.4426         26.2446         26.0222         25.7693         25.4765         25.1263         24.6810         23.4467    
   3      28.0635         28.0584         28.0482         28.0328         28.0122         27.9862         27.9548         27.9178         27.8750         27.8263    
          27.7713         27.7099         27.6415         27.5659         27.4826         27.3910         27.2905         27.1803         27.0595         26.9269    
          26.7811         26.6204         26.4426         26.2446         26.0222         25.7693         25.4765         25.1264         24.6810         23.4467    
   4      28.0635         28.0584         28.0482         28.0328         28.0122         27.9862         27.9548         27.9178         27.8750         27.8263    
          27.7713         27.7099         27.6415         27.5659         27.4826         27.3910         27.2905         27.1803         27.0595         26.9269    
          26.7811         26.6204         26.4426         26.2446         26.0222         25.7693         25.4765         25.1264         24.6810         23.4467    
   5      28.0635         28.0584         28.0482         28.0328         28.0122         27.9862         27.9548         27.9178         27.8750         27.8263    
          27.7713         27.7099         27.6415         27.5659         27.4826         27.3910         27.2905         27.1803         27.0595         26.9269    
          26.7811         26.6204         26.4426         26.2446         26.0222         25.7693         25.4764         25.1264         24.6810         23.4467    
   6      28.0635         28.0584         28.0482         28.0328         28.0122         27.9862         27.9548         27.9178         27.8750         27.8263    
          27.7713         27.7099         27.6415         27.5659         27.4826         27.3910         27.2905         27.1803         27.0595         26.9269    
          26.7811         26.6204         26.4426         26.2446         26.0222         25.7693         25.4764         25.1264         24.6810         23.4467    
   7      28.0635         28.0584         28.0482         28.0328         28.0122         27.9862         27.9548         27.9178         27.8750         27.8263    
          27.7713         27.7099         27.6415         27.5659         27.4826         27.3910         27.2905         27.1803         27.0595         26.9269    
          26.7811         26.6204         26.4426         26.2446         26.0222         25.7693         25.4764         25.1264         24.6810         23.4467    
   8      28.0635         28.0584         28.0482         28.0328         28.0122         27.9862         27.9548         27.9178         27.8750         27.8263    
          27.7713         27.7099         27.6415         27.5659         27.4826         27.3910         27.2905         27.1803         27.0595         26.9269    
          26.7811         26.6204         26.4426         26.2446         26.0222         25.7693         25.4764         25.1264         24.6810         23.4467    
   9      28.0635         28.0584         28.0482         28.0328         28.0122         27.9862         27.9548         27.9178         27.8750         27.8263    
          27.7713         27.7099         27.6415         27.5659         27.4826         27.3910         27.2905         27.1803         27.0595         26.9269    
          26.7811         26.6204         26.4426         26.2446         26.0222         25.7693         25.4764         25.1263         24.6810         23.4467    
  10      28.0635         28.0584         28.0482         28.0328         28.0122         27.9862         27.9548         27.9178         27.8750         27.8263    
          27.7713         27.7099         27.6415         27.5659         27.4826         27.3910         27.2905         27.1803         27.0595         26.9269    
          26.7811         26.6204         26.4426         26.2446         26.0222         25.7693         25.4764         25.1263         24.6810         23.4467    
  11      28.0635         28.0584         28.0482         28.0328         28.0122         27.9862         27.9548         27.9178         27.8750         27.8263    
          27.7713         27.7099         27.6415         27.5659         27.4826         27.3910         27.2905         27.1803         27.0595         26.9269    
          26.7811         26.6204         26.4426         26.2446         26.0222         25.7693         25.4764         25.1263         24.6810         23.4467    
  12      28.0635         28.0584         28.0482         28.0328         28.0122         27.9862         27.9548         27.9178         27.8750         27.8263    
          27.7713         27.7099         27.6415         27.5659         27.4826         27.3910         27.2905         27.1803         27.0595         26.9269    
          26.7811         26.6204         26.4426         26.2446         26.0222         25.7693         25.4764         25.1263         24.6810         23.4467    
  13      28.0635         28.0584         28.0482         28.0328         28.0122         27.9862         27.9548         27.9178         27.8750         27.8263    
          27.7713         27.7099         27.6415         27.5659         27.4826         27.3910         27.2905         27.1803         27.0595         26.9269    
          26.7811         26.6204         26.4426         26.2446         26.0222         25.7693         25.4764         25.1263         24.6810         23.4467    
  14      28.0635         28.0584         28.0482         28.0328         28.0122         27.9862         27.9548         27.9178         27.8750         27.8263    
          27.7713         27.7099         27.6415         27.5659         27.4826         27.3910         27.2905         27.1803         27.0595         26.9269    
          26.7811         26.6204         26.4426         26.2446         26.0222         25.7693         25.4764         25.1263         24.6810         23.4467    
  15      28.0635         28.0584         28.0482         28.0328         28.0122         27.9862         27.9548         27.9178         27.8750         27.8263    
          27.7713         27.7099         27.6415         27.5659         27.4826         27.3910         27.2905         27.1803         27.0595         26.9269    
          26.7811         26.6204         26.4426         26.2446         26.0222         25.7693         25.4764         25.1263         24.6810         23.4467    
  16      28.0635         28.0584         28.0482         28.0328         28.0122         27.9862         27.9548         27.9178         27.8750         27.8263    
          27.7713         27.7099         27.6415         27.5659         27.4826         27.3910         27.2905         27.1803         27.0595         26.9269    
          26.7811         26.6204         26.4426         26.2446         26.0222         25.7693         25.4764         25.1263         24.6810         23.4467    
  17      28.0635         28.0584         28.0482         28.0328         28.0122         27.9862         27.9548         27.9178         27.8750         27.8263    
          27.7713         27.7099         27.6415         27.5659         27.4826         27.3910         27.2905         27.1803         27.0595         26.9269    
          26.7811         26.6204         26.4426         26.2446         26.0222         25.7693         25.4764         25.1263         24.6810         23.4467    
  18      28.0635         28.0584         28.0482         28.0328         28.0122         27.9862         27.9548         27.9178         27.8750         27.8263    
          27.7713         27.7099         27.6415         27.5659         27.4826         27.3910         27.2905         27.1803         27.0595         26.9269    
          26.7811         26.6204         26.4426         26.2446         26.0222         25.7693         25.4764         25.1263         24.6810         23.4467    
  19      28.0635         28.0584         28.0482         28.0328         28.0122         27.9862         27.9548         27.9178         27.8750         27.8263    
          27.7713         27.7099         27.6415         27.5659         27.4826         27.3910         27.2905         27.1803         27.0595         26.9269    
          26.7811         26.6204         26.4426         26.2446         26.0222         25.7693         25.4764         25.1263         24.6810         23.4467    
  20      28.0635         28.0584         28.0482         28.0328         28.0122         27.9862         27.9548         27.9178         27.8750         27.8263    
          27.7713         27.7099         27.6415         27.5659         27.4826         27.3910         27.2905         27.1803         27.0595         26.9269    
          26.7811         26.6204         26.4426         26.2446         26.0222         25.7693         25.4764         25.1263         24.6810         23.4467    
  21      28.0635         28.0584         28.0482         28.0328         28.0122         27.9862         27.9548         27.9178         27.8750         27.8263    
          27.7713         27.7099         27.6415         27.5659         27.4826         27.3910         27.2905         27.1803         27.0595         26.9269    
          26.7811         26.6204         26.4426         26.2446         26.0222         25.7693         25.4764         25.1263         24.6810         23.4467    
  22      28.0635         28.0584         28.0482         28.0328         28.0122         27.9862         27.9548         27.9178         27.8750         27.8263    
          27.7713         27.7099         27.6415         27.5659         27.4826         27.3910         27.2905         27.1803         27.0595         26.9269    
          26.7811         26.6204         26.4426         26.2446         26.0222         25.7693         25.4764         25.1263         24.6810         23.4467    
  23      28.0635         28.0584         28.0482         28.0328         28.0122         27.9862         27.9548         27.9178         27.8750         27.8263    
          27.7713         27.7099         27.6415         27.5659         27.4826         27.3910         27.2905         27.1803         27.0595         26.9269    
          26.7811         26.6204         26.4426         26.2446         26.0222         25.7693         25.4764         25.1263         24.6810         23.4467    
  24      28.0635         28.0584         28.0482         28.0328         28.0122         27.9862         27.9548         27.9178         27.8750         27.8263    
          27.7713         27.7099         27.6415         27.5659         27.4826         27.3910         27.2905         27.1803         27.0595         26.9269    
          26.7811         26.6204         26.4426         26.2446         26.0222         25.7693         25.4764         25.1263         24.6810         23.4467    
  25      28.0635         28.0584         28.0482         28.0328         28.0122         27.9862         27.9548         27.9178         27.8750         27.8263    
          27.7713         27.7099         27.6415         27.5659         27.4826         27.3910         27.2905         27.1803         27.0595         26.9269    
          26.7811         26.6204         26.4426         26.2446         26.0222         25.7693         25.4764         25.1263         24.6810         23.4467    
  26      28.0635         28.0584         28.0482         28.0328         28.0122         27.9862         27.9548         27.9178         27.8750         27.8263    
          27.7713         27.7099         27.6415         27.5659         27.4826         27.3910         27.2905         27.1803         27.0595         26.9269    
          26.7811         26.6204         26.4426         26.2446         26.0222         25.7693         25.4764         25.1263         24.6810         23.4467    
  27      28.0635         28.0584         28.0482         28.0328         28.0122         27.9862         27.9548         27.9178         27.8750         27.8263    
          27.7713         27.7099         27.6415         27.5659         27.4826         27.3910         27.2905         27.1803         27.0595         26.9269    
          26.7811         26.6204         26.4426         26.2446         26.0222         25.7693         25.4764         25.1263         24.6810         23.4467    
  28      28.0635         28.0584         28.0482         28.0328         28.0122         27.9862         27.9548         27.9178         27.8750         27.8263    
          27.7713         27.7099         27.6415         27.5659         27.4826         27.3910         27.2905         27.1803         27.0595         26.9269    
          26.7811         26.6204         26.4426         26.2445         26.0222         25.7693         25.4764         25.1263         24.6810         23.4467    
  29      28.0635         28.0584         28.0482         28.0328         28.0122         27.9862         27.9548         27.9178         27.8750         27.8263    
          27.7713         27.7099         27.6415         27.5659         27.4826         27.3910         27.2905         27.1803         27.0595         26.9269    
          26.7811         26.6204         26.4426         26.2445         26.0222         25.7693         25.4764         25.1263         24.6810         23.4467    
  30      28.0635         28.0584         28.0482         28.0328         28.0122         27.9862         27.9548         27.9178         27.8750         27.8263    
          27.7713         27.7099         27.6415         27.5659         27.4826         27.3910         27.2905         27.1803         27.0595         26.9269    
          26.7811         26.6204         26.4426         26.2445         26.0222         25.7693         25.4764         25.1263         24.6810         23.4467    

 HEAD WILL BE SAVED ON UNIT 1019 AT END OF TIME STEP   10, STRESS PERIOD   13


  VOLUME BUDGET FOR ENTIRE MODEL AT END OF TIME STEP   10, STRESS PERIOD  13
  ---------------------------------------------------------------------------------------------------

     CUMULATIVE VOLUME      L**3       RATES FOR THIS TIME STEP      L**3/T          PACKAGE NAME    
     ------------------                 ------------------------                     ----------------

           IN:                                      IN:
           ---                                      ---
              STO-SS =          21.1560                STO-SS =       9.1505E-03     STORAGE         
              STO-SY =       13571.9261                STO-SY =           6.4166     STORAGE         
                 RCH =       59946.6036                   RCH =         238.3565     RCHA            
                 CHD =         597.9608                   CHD =           0.0000     CHD             

            TOTAL IN =       74137.6465              TOTAL IN =         244.7822

          OUT:                                     OUT:
          ----                                     ----
              STO-SS =          15.2725                STO-SS =       3.0993E-02     STORAGE         
              STO-SY =        9918.9068                STO-SY =          18.9277     STORAGE         
                 RCH =           0.0000                   RCH =           0.0000     RCHA            
                 CHD =       64203.1715                   CHD =         225.8171     CHD             

           TOTAL OUT =       74137.3508             TOTAL OUT =         244.7759

            IN - OUT =           0.2958              IN - OUT =       6.3895E-03

 PERCENT DISCREPANCY =           0.00     PERCENT DISCREPANCY =           0.00




         TIME SUMMARY AT END OF TIME STEP   10 IN STRESS PERIOD   13
                    SECONDS     MINUTES      HOURS       DAYS        YEARS
                    -----------------------------------------------------------
   TIME STEP LENGTH 2.59200E+05  4320.0      72.000      3.0000     8.21355E-03
 STRESS PERIOD TIME 2.59200E+06  43200.      720.00      30.000     8.21355E-02
         TOTAL TIME 3.11904E+07 5.19840E+05  8664.0      361.00     0.98836    

 OUTPUT CONTROL FOR STRESS PERIOD 14 IS REPEATED USING SETTINGS FROM A PREVIOUS STRESS PERIOD.


 STRESS PERIOD 14 IS TRANSIENT


                 RECHARGE =  0.3287670E-02
 UBDSV1 SAVING           STO-SS ON UNIT   1018 AT TIME STEP      1, STRESS PERIOD     14
 UBDSV1 SAVING           STO-SY ON UNIT   1018 AT TIME STEP      1, STRESS PERIOD     14
 UBDSV1 SAVING     FLOW-JA-FACE ON UNIT   1018 AT TIME STEP      1, STRESS PERIOD     14
 UBDSV06 SAVING              RCH IN MODEL TEST_TRANS       PACKAGE TEST_TRANS      CONNECTED TO MODEL TEST_TRANS       PACKAGE RCHA             ON UNIT   1018 AT TIME STEP      1, STRESS PERIOD     14
 UBDSV06 SAVING              CHD IN MODEL TEST_TRANS       PACKAGE TEST_TRANS      CONNECTED TO MODEL TEST_TRANS       PACKAGE CHD              ON UNIT   1018 AT TIME STEP      1, STRESS PERIOD     14
1
  HEAD IN LAYER   1 AT END OF TIME STEP   1 IN STRESS PERIOD   14
  ---------------------------------------------------------------------------

                1               2               3               4               5               6               7               8               9              10
               11              12              13              14              15              16              17              18              19              20
               21              22              23              24              25              26              27              28              29              30
 ................................................................................................................................................................
   1      28.0790         28.0738         28.0635         28.0480         28.0272         28.0010         27.9694         27.9321         27.8890         27.8398    
          27.7845         27.7225         27.6537         27.5775         27.4936         27.4014         27.3002         27.1894         27.0678         26.9345    
          26.7880         26.6266         26.4479         26.2490         26.0255         25.7713         25.4760         25.1213         24.6644         23.8794    
   2      28.0790         28.0738         28.0635         28.0480         28.0272         28.0010         27.9694         27.9321         27.8890         27.8398    
          27.7845         27.7225         27.6537         27.5775         27.4936         27.4014         27.3002         27.1894         27.0678         26.9345    
          26.7880         26.6266         26.4479         26.2490         26.0255         25.7713         25.4760         25.1213         24.6644         23.8794    
   3      28.0790         28.0738         28.0635         28.0480         28.0272         28.0010         27.9694         27.9321         27.8890         27.8398    
          27.7845         27.7225         27.6537         27.5775         27.4936         27.4014         27.3002         27.1894         27.0678         26.9345    
          26.7880         26.6266         26.4479         26.2490         26.0255         25.7713         25.4760         25.1213         24.6644         23.8794    
   4      28.0790         28.0738         28.0635         28.0480         28.0272         28.0010         27.9694         27.9321         27.8890         27.8398    
          27.7845         27.7225         27.6537         27.5775         27.4936         27.4014         27.3002         27.1894         27.0678         26.9345    
          26.7880         26.6266         26.4479         26.2490         26.0255         25.7713         25.4760         25.1213         24.6644         23.8794    
   5      28.0790         28.0738         28.0635         28.0480         28.0272         28.0010         27.9694         27.9321         27.8890         27.8398    
          27.7845         27.7225         27.6537         27.5775         27.4936         27.4014         27.3002         27.1894         27.0678         26.9345    
          26.7880         26.6266         26.4479         26.2490         26.0255         25.7713         25.4760         25.1213         24.6644         23.8794    
   6      28.0790         28.0738         28.0635         28.0480         28.0272         28.0010         27.9694         27.9321         27.8890         27.8398    
          27.7845         27.7225         27.6537         27.5775         27.4936         27.4014         27.3002         27.1894         27.0678         26.9345    
          26.7880         26.6266         26.4479         26.2490         26.0255         25.7713         25.4760         25.1213         24.6644         23.8794    
   7      28.0790         28.0738         28.0635         28.0480         28.0272         28.0010         27.9694         27.9321         27.8890         27.8398    
          27.7845         27.7225         27.6537         27.5775         27.4936         27.4014         27.3002         27.1894         27.0678         26.9345    
          26.7880         26.6266         26.4479         26.2490         26.0255         25.7713         25.4760         25.1213         24.6644         23.8794    
   8      28.0790         28.0738         28.0635         28.0480         28.0272         28.0010         27.9694         27.9321         27.8890         27.8398    
          27.7845         27.7225         27.6537         27.5775         27.4936         27.4014         27.3002         27.1894         27.0678         26.9345    
          26.7880         26.6266         26.4479         26.2490         26.0255         25.7713         25.4760         25.1213         24.6644         23.8794    
   9      28.0790         28.0738         28.0635         28.0480         28.0272         28.0010         27.9694         27.9321         27.8890         27.8398    
          27.7845         27.7225         27.6537         27.5775         27.4936         27.4014         27.3002         27.1894         27.0678         26.9345    
          26.7880         26.6266         26.4479         26.2490         26.0255         25.7713         25.4760         25.1213         24.6644         23.8794    
  10      28.0790         28.0738         28.0635         28.0480         28.0272         28.0010         27.9694         27.9321         27.8890         27.8398    
          27.7845         27.7225         27.6537         27.5775         27.4936         27.4014         27.3002         27.1894         27.0678         26.9345    
          26.7880         26.6266         26.4479         26.2490         26.0255         25.7713         25.4760         25.1213         24.6644         23.8794    
  11      28.0790         28.0738         28.0635         28.0480         28.0272         28.0010         27.9694         27.9321         27.8890         27.8398    
          27.7845         27.7225         27.6537         27.5775         27.4936         27.4014         27.3002         27.1894         27.0678         26.9345    
          26.7880         26.6266         26.4479         26.2490         26.0255         25.7713         25.4760         25.1213         24.6644         23.8794    
  12      28.0790         28.0738         28.0635         28.0480         28.0272         28.0010         27.9694         27.9321         27.8890         27.8398    
          27.7845         27.7225         27.6537         27.5775         27.4936         27.4014         27.3002         27.1894         27.0678         26.9345    
          26.7880         26.6266         26.4479         26.2490         26.0255         25.7713         25.4760         25.1213         24.6644         23.8794    
  13      28.0790         28.0738         28.0635         28.0480         28.0272         28.0010         27.9694         27.9321         27.8890         27.8398    
          27.7845         27.7225         27.6537         27.5775         27.4936         27.4014         27.3002         27.1894         27.0678         26.9345    
          26.7880         26.6266         26.4479         26.2490         26.0255         25.7713         25.4760         25.1213         24.6644         23.8794    
  14      28.0790         28.0738         28.0635         28.0480         28.0272         28.0010         27.9694         27.9321         27.8890         27.8398    
          27.7845         27.7225         27.6537         27.5775         27.4936         27.4014         27.3002         27.1894         27.0678         26.9345    
          26.7880         26.6266         26.4479         26.2490         26.0255         25.7713         25.4760         25.1213         24.6644         23.8794    
  15      28.0790         28.0738         28.0635         28.0480         28.0272         28.0010         27.9694         27.9321         27.8890         27.8398    
          27.7845         27.7225         27.6537         27.5775         27.4936         27.4014         27.3002         27.1894         27.0678         26.9345    
          26.7880         26.6266         26.4479         26.2490         26.0255         25.7713         25.4760         25.1213         24.6644         23.8794    
  16      28.0790         28.0738         28.0635         28.0480         28.0272         28.0010         27.9694         27.9321         27.8890         27.8398    
          27.7845         27.7225         27.6537         27.5775         27.4936         27.4014         27.3002         27.1894         27.0678         26.9345    
          26.7880         26.6266         26.4479         26.2490         26.0255         25.7713         25.4760         25.1213         24.6644         23.8794    
  17      28.0790         28.0738         28.0635         28.0480         28.0272         28.0010         27.9694         27.9321         27.8890         27.8398    
          27.7845         27.7225         27.6537         27.5775         27.4936         27.4014         27.3002         27.1894         27.0678         26.9345    
          26.7880         26.6266         26.4479         26.2490         26.0255         25.7713         25.4760         25.1213         24.6644         23.8794    
  18      28.0790         28.0738         28.0635         28.0480         28.0272         28.0010         27.9694         27.9321         27.8890         27.8398    
          27.7845         27.7225         27.6537         27.5775         27.4936         27.4014         27.3002         27.1894         27.0678         26.9345    
          26.7880         26.6266         26.4479         26.2490         26.0255         25.7713         25.4760         25.1213         24.6644         23.8794    
  19      28.0790         28.0738         28.0635         28.0480         28.0272         28.0010         27.9694         27.9321         27.8890         27.8398    
          27.7845         27.7225         27.6537         27.5775         27.4936         27.4014         27.3002         27.1894         27.0678         26.9345    
          26.7880         26.6266         26.4479         26.2490         26.0255         25.7713         25.4760         25.1213         24.6644         23.8794    
  20      28.0790         28.0738         28.0635         28.0480         28.0272         28.0010         27.9694         27.9321         27.8890         27.8398    
          27.7845         27.7225         27.6537         27.5775         27.4936         27.4014         27.3002         27.1894         27.0678         26.9345    
          26.7880         26.6266         26.4479         26.2490         26.0255         25.7713         25.4760         25.1213         24.6644         23.8794    
  21      28.0790         28.0738         28.0635         28.0480         28.0272         28.0010         27.9694         27.9321         27.8890         27.8398    
          27.7845         27.7225         27.6537         27.5775         27.4936         27.4014         27.3002         27.1894         27.0678         26.9345    
          26.7880         26.6266         26.4479         26.2490         26.0255         25.7713         25.4760         25.1213         24.6644         23.8794    
  22      28.0790         28.0738         28.0635         28.0480         28.0272         28.0010         27.9694         27.9321         27.8890         27.8398    
          27.7845         27.7225         27.6537         27.5775         27.4936         27.4014         27.3002         27.1894         27.0678         26.9345    
          26.7880         26.6266         26.4479         26.2490         26.0255         25.7713         25.4760         25.1213         24.6644         23.8794    
  23      28.0790         28.0738         28.0635         28.0480         28.0272         28.0010         27.9694         27.9321         27.8890         27.8398    
          27.7845         27.7225         27.6537         27.5775         27.4936         27.4014         27.3002         27.1894         27.0678         26.9345    
          26.7880         26.6266         26.4479         26.2490         26.0255         25.7713         25.4760         25.1213         24.6644         23.8794    
  24      28.0790         28.0738         28.0635         28.0480         28.0272         28.0010         27.9694         27.9321         27.8890         27.8398    
          27.7845         27.7225         27.6537         27.5775         27.4936         27.4014         27.3002         27.1894         27.0678         26.9345    
          26.7880         26.6266         26.4479         26.2490         26.0255         25.7713         25.4760         25.1213         24.6644         23.8794    
  25      28.0790         28.0738         28.0635         28.0480         28.0272         28.0010         27.9694         27.9321         27.8890         27.8398    
          27.7845         27.7225         27.6537         27.5775         27.4936         27.4014         27.3002         27.1894         27.0678         26.9345    
          26.7880         26.6266         26.4479         26.2490         26.0255         25.7713         25.4760         25.1213         24.6644         23.8794    
  26      28.0790         28.0738         28.0635         28.0480         28.0272         28.0010         27.9694         27.9321         27.8890         27.8398    
          27.7845         27.7225         27.6537         27.5775         27.4936         27.4014         27.3002         27.1894         27.0678         26.9345    
          26.7880         26.6266         26.4479         26.2490         26.0255         25.7713         25.4760         25.1213         24.6644         23.8794    
  27      28.0790         28.0738         28.0635         28.0480         28.0272         28.0010         27.9694         27.9321         27.8890         27.8398    
          27.7845         27.7225         27.6537         27.5775         27.4936         27.4014         27.3002         27.1894         27.0678         26.9345    
          26.7880         26.6266         26.4479         26.2490         26.0255         25.7713         25.4760         25.1213         24.6644         23.8794    
  28      28.0790         28.0738         28.0635         28.0480         28.0272         28.0010         27.9694         27.9321         27.8890         27.8398    
          27.7845         27.7225         27.6537         27.5775         27.4936         27.4014         27.3002         27.1894         27.0678         26.9345    
          26.7880         26.6266         26.4479         26.2490         26.0255         25.7713         25.4760         25.1213         24.6644         23.8794    
  29      28.0790         28.0738         28.0635         28.0480         28.0272         28.0010         27.9694         27.9321         27.8890         27.8398    
          27.7845         27.7225         27.6537         27.5775         27.4936         27.4014         27.3002         27.1894         27.0678         26.9345    
          26.7880         26.6266         26.4479         26.2490         26.0255         25.7713         25.4760         25.1213         24.6644         23.8794    
  30      28.0790         28.0738         28.0635         28.0480         28.0272         28.0010         27.9694         27.9321         27.8890         27.8398    
          27.7845         27.7225         27.6537         27.5775         27.4936         27.4014         27.3002         27.1894         27.0678         26.9345    
          26.7880         26.6266         26.4479         26.2490         26.0255         25.7713         25.4760         25.1213         24.6644         23.8794    

 HEAD WILL BE SAVED ON UNIT 1019 AT END OF TIME STEP    1, STRESS PERIOD   14



         TIME SUMMARY AT END OF TIME STEP    1 IN STRESS PERIOD   14
                    SECONDS     MINUTES      HOURS       DAYS        YEARS
                    -----------------------------------------------------------
   TIME STEP LENGTH 2.59200E+05  4320.0      72.000      3.0000     8.21355E-03
 STRESS PERIOD TIME 2.59200E+05  4320.0      72.000      3.0000     8.21355E-03
         TOTAL TIME 3.14496E+07 5.24160E+05  8736.0      364.00     0.99658    
 UBDSV1 SAVING           STO-SS ON UNIT   1018 AT TIME STEP      2, STRESS PERIOD     14
 UBDSV1 SAVING           STO-SY ON UNIT   1018 AT TIME STEP      2, STRESS PERIOD     14
 UBDSV1 SAVING     FLOW-JA-FACE ON UNIT   1018 AT TIME STEP      2, STRESS PERIOD     14
 UBDSV06 SAVING              RCH IN MODEL TEST_TRANS       PACKAGE TEST_TRANS      CONNECTED TO MODEL TEST_TRANS       PACKAGE RCHA             ON UNIT   1018 AT TIME STEP      2, STRESS PERIOD     14
 UBDSV06 SAVING              CHD IN MODEL TEST_TRANS       PACKAGE TEST_TRANS      CONNECTED TO MODEL TEST_TRANS       PACKAGE CHD              ON UNIT   1018 AT TIME STEP      2, STRESS PERIOD     14

 HEAD WILL BE SAVED ON UNIT 1019 AT END OF TIME STEP    2, STRESS PERIOD   14
 UBDSV1 SAVING           STO-SS ON UNIT   1018 AT TIME STEP      3, STRESS PERIOD     14
 UBDSV1 SAVING           STO-SY ON UNIT   1018 AT TIME STEP      3, STRESS PERIOD     14
 UBDSV1 SAVING     FLOW-JA-FACE ON UNIT   1018 AT TIME STEP      3, STRESS PERIOD     14
 UBDSV06 SAVING              RCH IN MODEL TEST_TRANS       PACKAGE TEST_TRANS      CONNECTED TO MODEL TEST_TRANS       PACKAGE RCHA             ON UNIT   1018 AT TIME STEP      3, STRESS PERIOD     14
 UBDSV06 SAVING              CHD IN MODEL TEST_TRANS       PACKAGE TEST_TRANS      CONNECTED TO MODEL TEST_TRANS       PACKAGE CHD              ON UNIT   1018 AT TIME STEP      3, STRESS PERIOD     14

 HEAD WILL BE SAVED ON UNIT 1019 AT END OF TIME STEP    3, STRESS PERIOD   14
 UBDSV1 SAVING           STO-SS ON UNIT   1018 AT TIME STEP      4, STRESS PERIOD     14
 UBDSV1 SAVING           STO-SY ON UNIT   1018 AT TIME STEP      4, STRESS PERIOD     14
 UBDSV1 SAVING     FLOW-JA-FACE ON UNIT   1018 AT TIME STEP      4, STRESS PERIOD     14
 UBDSV06 SAVING              RCH IN MODEL TEST_TRANS       PACKAGE TEST_TRANS      CONNECTED TO MODEL TEST_TRANS       PACKAGE RCHA             ON UNIT   1018 AT TIME STEP      4, STRESS PERIOD     14
 UBDSV06 SAVING              CHD IN MODEL TEST_TRANS       PACKAGE TEST_TRANS      CONNECTED TO MODEL TEST_TRANS       PACKAGE CHD              ON UNIT   1018 AT TIME STEP      4, STRESS PERIOD     14

 HEAD WILL BE SAVED ON UNIT 1019 AT END OF TIME STEP    4, STRESS PERIOD   14
 UBDSV1 SAVING           STO-SS ON UNIT   1018 AT TIME STEP      5, STRESS PERIOD     14
 UBDSV1 SAVING           STO-SY ON UNIT   1018 AT TIME STEP      5, STRESS PERIOD     14
 UBDSV1 SAVING     FLOW-JA-FACE ON UNIT   1018 AT TIME STEP      5, STRESS PERIOD     14
 UBDSV06 SAVING              RCH IN MODEL TEST_TRANS       PACKAGE TEST_TRANS      CONNECTED TO MODEL TEST_TRANS       PACKAGE RCHA             ON UNIT   1018 AT TIME STEP      5, STRESS PERIOD     14
 UBDSV06 SAVING              CHD IN MODEL TEST_TRANS       PACKAGE TEST_TRANS      CONNECTED TO MODEL TEST_TRANS       PACKAGE CHD              ON UNIT   1018 AT TIME STEP      5, STRESS PERIOD     14

 HEAD WILL BE SAVED ON UNIT 1019 AT END OF TIME STEP    5, STRESS PERIOD   14
 UBDSV1 SAVING           STO-SS ON UNIT   1018 AT TIME STEP      6, STRESS PERIOD     14
 UBDSV1 SAVING           STO-SY ON UNIT   1018 AT TIME STEP      6, STRESS PERIOD     14
 UBDSV1 SAVING     FLOW-JA-FACE ON UNIT   1018 AT TIME STEP      6, STRESS PERIOD     14
 UBDSV06 SAVING              RCH IN MODEL TEST_TRANS       PACKAGE TEST_TRANS      CONNECTED TO MODEL TEST_TRANS       PACKAGE RCHA             ON UNIT   1018 AT TIME STEP      6, STRESS PERIOD     14
 UBDSV06 SAVING              CHD IN MODEL TEST_TRANS       PACKAGE TEST_TRANS      CONNECTED TO MODEL TEST_TRANS       PACKAGE CHD              ON UNIT   1018 AT TIME STEP      6, STRESS PERIOD     14

 HEAD WILL BE SAVED ON UNIT 1019 AT END OF TIME STEP    6, STRESS PERIOD   14
 UBDSV1 SAVING           STO-SS ON UNIT   1018 AT TIME STEP      7, STRESS PERIOD     14
 UBDSV1 SAVING           STO-SY ON UNIT   1018 AT TIME STEP      7, STRESS PERIOD     14
 UBDSV1 SAVING     FLOW-JA-FACE ON UNIT   1018 AT TIME STEP      7, STRESS PERIOD     14
 UBDSV06 SAVING              RCH IN MODEL TEST_TRANS       PACKAGE TEST_TRANS      CONNECTED TO MODEL TEST_TRANS       PACKAGE RCHA             ON UNIT   1018 AT TIME STEP      7, STRESS PERIOD     14
 UBDSV06 SAVING              CHD IN MODEL TEST_TRANS       PACKAGE TEST_TRANS      CONNECTED TO MODEL TEST_TRANS       PACKAGE CHD              ON UNIT   1018 AT TIME STEP      7, STRESS PERIOD     14

 HEAD WILL BE SAVED ON UNIT 1019 AT END OF TIME STEP    7, STRESS PERIOD   14
 UBDSV1 SAVING           STO-SS ON UNIT   1018 AT TIME STEP      8, STRESS PERIOD     14
 UBDSV1 SAVING           STO-SY ON UNIT   1018 AT TIME STEP      8, STRESS PERIOD     14
 UBDSV1 SAVING     FLOW-JA-FACE ON UNIT   1018 AT TIME STEP      8, STRESS PERIOD     14
 UBDSV06 SAVING              RCH IN MODEL TEST_TRANS       PACKAGE TEST_TRANS      CONNECTED TO MODEL TEST_TRANS       PACKAGE RCHA             ON UNIT   1018 AT TIME STEP      8, STRESS PERIOD     14
 UBDSV06 SAVING              CHD IN MODEL TEST_TRANS       PACKAGE TEST_TRANS      CONNECTED TO MODEL TEST_TRANS       PACKAGE CHD              ON UNIT   1018 AT TIME STEP      8, STRESS PERIOD     14

 HEAD WILL BE SAVED ON UNIT 1019 AT END OF TIME STEP    8, STRESS PERIOD   14
 UBDSV1 SAVING           STO-SS ON UNIT   1018 AT TIME STEP      9, STRESS PERIOD     14
 UBDSV1 SAVING           STO-SY ON UNIT   1018 AT TIME STEP      9, STRESS PERIOD     14
 UBDSV1 SAVING     FLOW-JA-FACE ON UNIT   1018 AT TIME STEP      9, STRESS PERIOD     14
 UBDSV06 SAVING              RCH IN MODEL TEST_TRANS       PACKAGE TEST_TRANS      CONNECTED TO MODEL TEST_TRANS       PACKAGE RCHA             ON UNIT   1018 AT TIME STEP      9, STRESS PERIOD     14
 UBDSV06 SAVING              CHD IN MODEL TEST_TRANS       PACKAGE TEST_TRANS      CONNECTED TO MODEL TEST_TRANS       PACKAGE CHD              ON UNIT   1018 AT TIME STEP      9, STRESS PERIOD     14

 HEAD WILL BE SAVED ON UNIT 1019 AT END OF TIME STEP    9, STRESS PERIOD   14
 UBDSV1 SAVING           STO-SS ON UNIT   1018 AT TIME STEP     10, STRESS PERIOD     14
 UBDSV1 SAVING           STO-SY ON UNIT   1018 AT TIME STEP     10, STRESS PERIOD     14
 UBDSV1 SAVING     FLOW-JA-FACE ON UNIT   1018 AT TIME STEP     10, STRESS PERIOD     14
 UBDSV06 SAVING              RCH IN MODEL TEST_TRANS       PACKAGE TEST_TRANS      CONNECTED TO MODEL TEST_TRANS       PACKAGE RCHA             ON UNIT   1018 AT TIME STEP     10, STRESS PERIOD     14
 UBDSV06 SAVING              CHD IN MODEL TEST_TRANS       PACKAGE TEST_TRANS      CONNECTED TO MODEL TEST_TRANS       PACKAGE CHD              ON UNIT   1018 AT TIME STEP     10, STRESS PERIOD     14
1
  HEAD IN LAYER   1 AT END OF TIME STEP  10 IN STRESS PERIOD   14
  ---------------------------------------------------------------------------

                1               2               3               4               5               6               7               8               9              10
               11              12              13              14              15              16              17              18              19              20
               21              22              23              24              25              26              27              28              29              30
 ................................................................................................................................................................
   1      28.2026         28.1971         28.1862         28.1697         28.1476         28.1199         28.0863         28.0468         28.0012         27.9493    
          27.8909         27.8255         27.7530         27.6730         27.5849         27.4882         27.3823         27.2665         27.1398         27.0011    
          26.8489         26.6816         26.4968         26.2914         26.0610         25.7994         25.4963         25.1332         24.6678         23.8794    
   2      28.2026         28.1971         28.1862         28.1697         28.1476         28.1199         28.0863         28.0468         28.0012         27.9493    
          27.8909         27.8255         27.7530         27.6730         27.5849         27.4882         27.3823         27.2665         27.1398         27.0011    
          26.8489         26.6816         26.4968         26.2914         26.0610         25.7994         25.4963         25.1332         24.6678         23.8794    
   3      28.2026         28.1971         28.1862         28.1697         28.1476         28.1199         28.0863         28.0469         28.0012         27.9493    
          27.8909         27.8255         27.7530         27.6730         27.5849         27.4882         27.3823         27.2665         27.1398         27.0011    
          26.8489         26.6816         26.4968         26.2914         26.0610         25.7994         25.4963         25.1332         24.6678         23.8794    
   4      28.2026         28.1971         28.1862         28.1697         28.1476         28.1199         28.0863         28.0469         28.0012         27.9493    
          27.8909         27.8255         27.7530         27.6730         27.5849         27.4882         27.3823         27.2665         27.1398         27.0011    
          26.8489         26.6816         26.4968         26.2914         26.0610         25.7994         25.4963         25.1332         24.6678         23.8794    
   5      28.2026         28.1971         28.1862         28.1697         28.1476         28.1199         28.0863         28.0468         28.0012         27.9493    
          27.8909         27.8255         27.7530         27.6730         27.5849         27.4882         27.3823         27.2665         27.1398         27.0011    
          26.8489         26.6816         26.4968         26.2914         26.0610         25.7994         25.4963         25.1332         24.6678         23.8794    
   6      28.2026         28.1971         28.1862         28.1697         28.1476         28.1199         28.0863         28.0468         28.0012         27.9493    
          27.8909         27.8255         27.7530         27.6730         27.5849         27.4882         27.3823         27.2665         27.1398         27.0011    
          26.8489         26.6816         26.4968         26.2914         26.0610         25.7994         25.4963         25.1332         24.6678         23.8794    
   7      28.2026         28.1971         28.1862         28.1697         28.1476         28.1199         28.0863         28.0468         28.0012         27.9493    
          27.8909         27.8255         27.7530         27.6730         27.5849         27.4882         27.3823         27.2665         27.1398         27.0011    
          26.8489         26.6816         26.4968         26.2914         26.0610         25.7994         25.4963         25.1332         24.6678         23.8794    
   8      28.2026         28.1971         28.1862         28.1697         28.1476         28.1199         28.0863         28.0468         28.0012         27.9493    
          27.8909         27.8255         27.7530         27.6730         27.5849         27.4882         27.3823         27.2665         27.1398         27.0011    
          26.8489         26.6816         26.4968         26.2914         26.0610         25.7994         25.4963         25.1332         24.6678         23.8794    
   9      28.2026         28.1971         28.1862         28.1697         28.1476         28.1199         28.0863         28.0468         28.0012         27.9493    
          27.8909         27.8255         27.7530         27.6730         27.5849         27.4882         27.3823         27.2665         27.1398         27.0011    
          26.8489         26.6816         26.4968         26.2914         26.0610         25.7994         25.4963         25.1332         24.6678         23.8794    
  10      28.2026         28.1971         28.1862         28.1697         28.1476         28.1199         28.0863         28.0468         28.0012         27.9493    
          27.8909         27.8255         27.7530         27.6730         27.5849         27.4882         27.3823         27.2665         27.1398         27.0011    
          26.8489         26.6816         26.4968         26.2914         26.0610         25.7994         25.4963         25.1332         24.6678         23.8794    
  11      28.2026         28.1971         28.1862         28.1697         28.1476         28.1199         28.0863         28.0468         28.0012         27.9493    
          27.8909         27.8255         27.7530         27.6730         27.5849         27.4882         27.3823         27.2665         27.1398         27.0011    
          26.8489         26.6816         26.4968         26.2914         26.0610         25.7994         25.4963         25.1332         24.6678         23.8794    
  12      28.2026         28.1971         28.1862         28.1697         28.1476         28.1199         28.0863         28.0468         28.0012         27.9493    
          27.8909         27.8255         27.7530         27.6730         27.5849         27.4882         27.3823         27.2665         27.1398         27.0011    
          26.8489         26.6816         26.4968         26.2914         26.0610         25.7994         25.4963         25.1332         24.6678         23.8794    
  13      28.2026         28.1971         28.1862         28.1697         28.1476         28.1199         28.0863         28.0468         28.0012         27.9493    
          27.8909         27.8255         27.7530         27.6730         27.5849         27.4882         27.3823         27.2665         27.1398         27.0011    
          26.8489         26.6816         26.4968         26.2914         26.0610         25.7994         25.4963         25.1332         24.6678         23.8794    
  14      28.2026         28.1971         28.1862         28.1697         28.1476         28.1199         28.0863         28.0468         28.0012         27.9493    
          27.8909         27.8255         27.7530         27.6730         27.5849         27.4882         27.3823         27.2665         27.1398         27.0011    
          26.8489         26.6816         26.4968         26.2914         26.0610         25.7994         25.4963         25.1332         24.6678         23.8794    
  15      28.2026         28.1971         28.1862         28.1697         28.1476         28.1199         28.0863         28.0468         28.0012         27.9493    
          27.8909         27.8255         27.7530         27.6730         27.5849         27.4882         27.3823         27.2665         27.1398         27.0011    
          26.8489         26.6816         26.4968         26.2914         26.0610         25.7994         25.4963         25.1332         24.6678         23.8794    
  16      28.2026         28.1971         28.1862         28.1697         28.1476         28.1199         28.0863         28.0468         28.0012         27.9493    
          27.8908         27.8255         27.7530         27.6730         27.5849         27.4882         27.3823         27.2665         27.1398         27.0011    
          26.8489         26.6816         26.4968         26.2914         26.0610         25.7994         25.4963         25.1332         24.6678         23.8794    
  17      28.2026         28.1971         28.1862         28.1697         28.1476         28.1199         28.0863         28.0468         28.0012         27.9493    
          27.8908         27.8255         27.7530         27.6730         27.5849         27.4882         27.3823         27.2665         27.1398         27.0011    
          26.8489         26.6816         26.4968         26.2914         26.0610         25.7994         25.4963         25.1332         24.6678         23.8794    
  18      28.2026         28.1971         28.1862         28.1697         28.1476         28.1199         28.0863         28.0468         28.0012         27.9493    
          27.8908         27.8255         27.7530         27.6730         27.5849         27.4882         27.3823         27.2665         27.1398         27.0011    
          26.8489         26.6816         26.4968         26.2914         26.0610         25.7994         25.4963         25.1332         24.6678         23.8794    
  19      28.2026         28.1971         28.1862         28.1697         28.1476         28.1199         28.0863         28.0468         28.0012         27.9493    
          27.8908         27.8255         27.7530         27.6730         27.5849         27.4882         27.3823         27.2665         27.1398         27.0011    
          26.8489         26.6816         26.4968         26.2914         26.0610         25.7994         25.4963         25.1332         24.6678         23.8794    
  20      28.2026         28.1971         28.1862         28.1697         28.1476         28.1199         28.0863         28.0468         28.0012         27.9493    
          27.8908         27.8255         27.7530         27.6730         27.5849         27.4882         27.3823         27.2665         27.1398         27.0011    
          26.8489         26.6816         26.4968         26.2914         26.0610         25.7994         25.4963         25.1332         24.6678         23.8794    
  21      28.2026         28.1971         28.1862         28.1697         28.1476         28.1199         28.0863         28.0468         28.0012         27.9493    
          27.8908         27.8255         27.7530         27.6730         27.5849         27.4882         27.3823         27.2665         27.1398         27.0011    
          26.8489         26.6816         26.4968         26.2914         26.0610         25.7994         25.4963         25.1332         24.6678         23.8794    
  22      28.2026         28.1971         28.1862         28.1697         28.1476         28.1199         28.0863         28.0468         28.0012         27.9493    
          27.8908         27.8255         27.7530         27.6730         27.5849         27.4882         27.3823         27.2665         27.1398         27.0011    
          26.8489         26.6816         26.4968         26.2914         26.0610         25.7994         25.4963         25.1332         24.6678         23.8794    
  23      28.2026         28.1971         28.1862         28.1697         28.1476         28.1199         28.0863         28.0468         28.0012         27.9493    
          27.8908         27.8255         27.7530         27.6730         27.5849         27.4882         27.3823         27.2665         27.1398         27.0011    
          26.8489         26.6816         26.4968         26.2914         26.0610         25.7994         25.4963         25.1332         24.6678         23.8794    
  24      28.2026         28.1971         28.1862         28.1697         28.1476         28.1199         28.0863         28.0468         28.0012         27.9493    
          27.8908         27.8255         27.7530         27.6730         27.5849         27.4882         27.3823         27.2665         27.1398         27.0011    
          26.8489         26.6816         26.4968         26.2914         26.0610         25.7994         25.4963         25.1332         24.6678         23.8794    
  25      28.2026         28.1971         28.1862         28.1697         28.1476         28.1199         28.0863         28.0468         28.0012         27.9493    
          27.8908         27.8255         27.7530         27.6730         27.5849         27.4882         27.3823         27.2665         27.1398         27.0011    
          26.8489         26.6816         26.4968         26.2914         26.0610         25.7994         25.4963         25.1332         24.6678         23.8794    
  26      28.2026         28.1971         28.1862         28.1697         28.1476         28.1199         28.0863         28.0468         28.0012         27.9493    
          27.8908         27.8255         27.7530         27.6730         27.5849         27.4882         27.3823         27.2665         27.1398         27.0011    
          26.8489         26.6816         26.4968         26.2914         26.0610         25.7994         25.4963         25.1332         24.6678         23.8794    
  27      28.2026         28.1971         28.1862         28.1697         28.1476         28.1199         28.0863         28.0468         28.0012         27.9493    
          27.8908         27.8255         27.7530         27.6730         27.5849         27.4882         27.3823         27.2665         27.1398         27.0011    
          26.8489         26.6816         26.4968         26.2914         26.0610         25.7994         25.4963         25.1332         24.6678         23.8794    
  28      28.2026         28.1971         28.1862         28.1697         28.1476         28.1199         28.0863         28.0468         28.0012         27.9493    
          27.8908         27.8255         27.7530         27.6730         27.5849         27.4882         27.3823         27.2665         27.1398         27.0011    
          26.8489         26.6816         26.4968         26.2914         26.0610         25.7994         25.4963         25.1332         24.6678         23.8794    
  29      28.2026         28.1971         28.1862         28.1697         28.1476         28.1199         28.0863         28.0468         28.0012         27.9493    
          27.8908         27.8255         27.7530         27.6730         27.5849         27.4882         27.3823         27.2665         27.1398         27.0011    
          26.8489         26.6816         26.4968         26.2914         26.0610         25.7994         25.4963         25.1332         24.6678         23.8794    
  30      28.2026         28.1971         28.1862         28.1697         28.1476         28.1199         28.0863         28.0468         28.0012         27.9493    
          27.8908         27.8255         27.7530         27.6730         27.5849         27.4882         27.3823         27.2665         27.1398         27.0011    
          26.8489         26.6816         26.4968         26.2914         26.0610         25.7994         25.4963         25.1332         24.6678         23.8794    

 HEAD WILL BE SAVED ON UNIT 1019 AT END OF TIME STEP   10, STRESS PERIOD   14


  VOLUME BUDGET FOR ENTIRE MODEL AT END OF TIME STEP   10, STRESS PERIOD  14
  ---------------------------------------------------------------------------------------------------

     CUMULATIVE VOLUME      L**3       RATES FOR THIS TIME STEP      L**3/T          PACKAGE NAME    
     ------------------                 ------------------------                     ----------------

           IN:                                      IN:
           ---                                      ---
              STO-SS =          21.1807                STO-SS =           0.0000     STORAGE         
              STO-SY =       13590.4897                STO-SY =           0.0000     STORAGE         
                 RCH =       68527.4223                   RCH =         286.0273     RCHA            
                 CHD =         597.9608                   CHD =           0.0000     CHD             

            TOTAL IN =       82737.0534              TOTAL IN =         286.0273

          OUT:                                     OUT:
          ----                                     ----
              STO-SS =          17.8445                STO-SS =       8.1443E-02     STORAGE         
              STO-SY =       11515.2583                STO-SY =          50.6296     STORAGE         
                 RCH =           0.0000                   RCH =           0.0000     RCHA            
                 CHD =       71203.8164                   CHD =         235.3226     CHD             

           TOTAL OUT =       82736.9192             TOTAL OUT =         286.0337

            IN - OUT =           0.1342              IN - OUT =      -6.3917E-03

 PERCENT DISCREPANCY =           0.00     PERCENT DISCREPANCY =          -0.00




         TIME SUMMARY AT END OF TIME STEP   10 IN STRESS PERIOD   14
                    SECONDS     MINUTES      HOURS       DAYS        YEARS
                    -----------------------------------------------------------
   TIME STEP LENGTH 2.59200E+05  4320.0      72.000      3.0000     8.21355E-03
 STRESS PERIOD TIME 2.59200E+06  43200.      720.00      30.000     8.21355E-02
         TOTAL TIME 3.37824E+07 5.63040E+05  9384.0      391.00      1.0705    

 OUTPUT CONTROL FOR STRESS PERIOD 15 IS REPEATED USING SETTINGS FROM A PREVIOUS STRESS PERIOD.


 STRESS PERIOD 15 IS TRANSIENT


                 RECHARGE =  0.2465750E-02
 UBDSV1 SAVING           STO-SS ON UNIT   1018 AT TIME STEP      1, STRESS PERIOD     15
 UBDSV1 SAVING           STO-SY ON UNIT   1018 AT TIME STEP      1, STRESS PERIOD     15
 UBDSV1 SAVING     FLOW-JA-FACE ON UNIT   1018 AT TIME STEP      1, STRESS PERIOD     15
 UBDSV06 SAVING              RCH IN MODEL TEST_TRANS       PACKAGE TEST_TRANS      CONNECTED TO MODEL TEST_TRANS       PACKAGE RCHA             ON UNIT   1018 AT TIME STEP      1, STRESS PERIOD     15
 UBDSV06 SAVING              CHD IN MODEL TEST_TRANS       PACKAGE TEST_TRANS      CONNECTED TO MODEL TEST_TRANS       PACKAGE CHD              ON UNIT   1018 AT TIME STEP      1, STRESS PERIOD     15
1
  HEAD IN LAYER   1 AT END OF TIME STEP   1 IN STRESS PERIOD   15
  ---------------------------------------------------------------------------

                1               2               3               4               5               6               7               8               9              10
               11              12              13              14              15              16              17              18              19              20
               21              22              23              24              25              26              27              28              29              30
 ................................................................................................................................................................
   1      28.2026         28.1971         28.1861         28.1695         28.1473         28.1195         28.0858         28.0461         28.0003         27.9481    
          27.8894         27.8237         27.7509         27.6705         27.5821         27.4850         27.3788         27.2626         27.1354         26.9963    
          26.8437         26.6759         26.4907         26.2849         26.0542         25.7924         25.4892         25.1265         24.6626         23.8851    
   2      28.2026         28.1971         28.1861         28.1695         28.1473         28.1195         28.0858         28.0461         28.0003         27.9481    
          27.8893         27.8237         27.7509         27.6705         27.5821         27.4850         27.3788         27.2626         27.1354         26.9963    
          26.8437         26.6759         26.4907         26.2849         26.0542         25.7924         25.4892         25.1265         24.6626         23.8851    
   3      28.2026         28.1971         28.1861         28.1695         28.1473         28.1195         28.0858         28.0461         28.0003         27.9481    
          27.8894         27.8237         27.7509         27.6705         27.5821         27.4850         27.3788         27.2626         27.1354         26.9963    
          26.8437         26.6759         26.4907         26.2849         26.0542         25.7924         25.4892         25.1265         24.6626         23.8851    
   4      28.2026         28.1971         28.1861         28.1695         28.1473         28.1195         28.0858         28.0461         28.0003         27.9481    
          27.8894         27.8237         27.7509         27.6705         27.5821         27.4850         27.3788         27.2626         27.1354         26.9963    
          26.8437         26.6759         26.4907         26.2849         26.0542         25.7924         25.4892         25.1265         24.6626         23.8851    
   5      28.2026         28.1971         28.1861         28.1695         28.1473         28.1195         28.0858         28.0461         28.0003         27.9481    
          27.8894         27.8237         27.7509         27.6705         27.5821         27.4850         27.3788         27.2626         27.1354         26.9963    
          26.8437         26.6759         26.4907         26.2849         26.0542         25.7924         25.4892         25.1265         24.6626         23.8851    
   6      28.2026         28.1971         28.1861         28.1695         28.1473         28.1195         28.0858         28.0461         28.0003         27.9481    
          27.8893         27.8237         27.7509         27.6705         27.5821         27.4850         27.3788         27.2626         27.1354         26.9963    
          26.8437         26.6759         26.4907         26.2849         26.0542         25.7924         25.4892         25.1265         24.6626         23.8851    
   7      28.2026         28.1971         28.1861         28.1695         28.1473         28.1195         28.0858         28.0461         28.0003         27.9481    
          27.8893         27.8237         27.7509         27.6705         27.5821         27.4850         27.3788         27.2626         27.1354         26.9963    
          26.8437         26.6759         26.4907         26.2849         26.0542         25.7924         25.4892         25.1265         24.6626         23.8851    
   8      28.2026         28.1971         28.1861         28.1695         28.1473         28.1195         28.0858         28.0461         28.0003         27.9481    
          27.8893         27.8237         27.7509         27.6705         27.5821         27.4850         27.3788         27.2626         27.1354         26.9963    
          26.8437         26.6759         26.4907         26.2849         26.0542         25.7924         25.4892         25.1265         24.6626         23.8851    
   9      28.2026         28.1971         28.1861         28.1695         28.1473         28.1195         28.0858         28.0461         28.0003         27.9481    
          27.8893         27.8237         27.7509         27.6705         27.5821         27.4850         27.3788         27.2626         27.1354         26.9963    
          26.8437         26.6759         26.4907         26.2849         26.0542         25.7924         25.4892         25.1265         24.6626         23.8851    
  10      28.2026         28.1971         28.1861         28.1695         28.1473         28.1195         28.0858         28.0461         28.0003         27.9481    
          27.8893         27.8237         27.7509         27.6705         27.5821         27.4850         27.3788         27.2626         27.1354         26.9963    
          26.8437         26.6759         26.4907         26.2849         26.0542         25.7924         25.4892         25.1265         24.6626         23.8851    
  11      28.2026         28.1971         28.1861         28.1695         28.1473         28.1195         28.0858         28.0461         28.0003         27.9481    
          27.8893         27.8237         27.7509         27.6705         27.5821         27.4850         27.3788         27.2626         27.1354         26.9963    
          26.8437         26.6759         26.4907         26.2849         26.0542         25.7924         25.4892         25.1265         24.6626         23.8851    
  12      28.2026         28.1971         28.1861         28.1695         28.1473         28.1195         28.0858         28.0461         28.0003         27.9481    
          27.8893         27.8237         27.7509         27.6705         27.5821         27.4850         27.3788         27.2626         27.1354         26.9963    
          26.8437         26.6759         26.4907         26.2849         26.0542         25.7924         25.4892         25.1265         24.6626         23.8851    
  13      28.2026         28.1971         28.1861         28.1695         28.1473         28.1195         28.0858         28.0461         28.0003         27.9481    
          27.8893         27.8237         27.7509         27.6705         27.5821         27.4850         27.3788         27.2626         27.1354         26.9963    
          26.8437         26.6759         26.4907         26.2849         26.0542         25.7924         25.4892         25.1265         24.6626         23.8851    
  14      28.2026         28.1971         28.1861         28.1695         28.1473         28.1195         28.0857         28.0461         28.0003         27.9481    
          27.8893         27.8237         27.7509         27.6705         27.5821         27.4850         27.3788         27.2626         27.1354         26.9963    
          26.8437         26.6759         26.4907         26.2849         26.0542         25.7924         25.4892         25.1265         24.6626         23.8851    
  15      28.2026         28.1971         28.1861         28.1695         28.1473         28.1195         28.0857         28.0461         28.0003         27.9481    
          27.8893         27.8237         27.7509         27.6705         27.5821         27.4850         27.3788         27.2626         27.1354         26.9963    
          26.8437         26.6759         26.4907         26.2849         26.0542         25.7924         25.4892         25.1265         24.6626         23.8851    
  16      28.2026         28.1971         28.1861         28.1695         28.1473         28.1195         28.0857         28.0461         28.0003         27.9481    
          27.8893         27.8237         27.7509         27.6705         27.5821         27.4850         27.3788         27.2626         27.1354         26.9963    
          26.8437         26.6759         26.4907         26.2849         26.0542         25.7924         25.4892         25.1265         24.6626         23.8851    
  17      28.2026         28.1971         28.1861         28.1695         28.1473         28.1195         28.0857         28.0461         28.0003         27.9481    
          27.8893         27.8237         27.7509         27.6705         27.5821         27.4850         27.3788         27.2626         27.1354         26.9963    
          26.8437         26.6759         26.4907         26.2849         26.0542         25.7924         25.4892         25.1265         24.6626         23.8851    
  18      28.2026         28.1971         28.1861         28.1695         28.1473         28.1195         28.0857         28.0461         28.0003         27.9481    
          27.8893         27.8237         27.7509         27.6705         27.5821         27.4850         27.3788         27.2626         27.1354         26.9963    
          26.8437         26.6759         26.4907         26.2849         26.0542         25.7924         25.4892         25.1265         24.6626         23.8851    
  19      28.2026         28.1971         28.1861         28.1695         28.1473         28.1195         28.0857         28.0461         28.0003         27.9481    
          27.8893         27.8237         27.7509         27.6705         27.5821         27.4850         27.3788         27.2626         27.1354         26.9963    
          26.8437         26.6759         26.4907         26.2849         26.0542         25.7924         25.4892         25.1265         24.6626         23.8851    
  20      28.2026         28.1971         28.1861         28.1695         28.1473         28.1195         28.0857         28.0461         28.0003         27.9481    
          27.8893         27.8237         27.7509         27.6705         27.5821         27.4850         27.3788         27.2626         27.1354         26.9963    
          26.8437         26.6759         26.4907         26.2849         26.0542         25.7924         25.4892         25.1265         24.6626         23.8851    
  21      28.2026         28.1971         28.1861         28.1695         28.1473         28.1195         28.0857         28.0461         28.0003         27.9481    
          27.8893         27.8237         27.7509         27.6705         27.5821         27.4850         27.3788         27.2626         27.1354         26.9963    
          26.8437         26.6759         26.4907         26.2849         26.0542         25.7924         25.4892         25.1265         24.6626         23.8851    
  22      28.2026         28.1971         28.1861         28.1695         28.1473         28.1195         28.0857         28.0461         28.0003         27.9481    
          27.8893         27.8237         27.7509         27.6705         27.5821         27.4850         27.3788         27.2626         27.1354         26.9963    
          26.8437         26.6759         26.4907         26.2849         26.0542         25.7924         25.4892         25.1265         24.6626         23.8851    
  23      28.2026         28.1971         28.1861         28.1695         28.1473         28.1195         28.0857         28.0461         28.0003         27.9481    
          27.8893         27.8237         27.7509         27.6705         27.5821         27.4850         27.3788         27.2626         27.1354         26.9963    
          26.8437         26.6759         26.4907         26.2849         26.0542         25.7924         25.4892         25.1265         24.6626         23.8851    
  24      28.2026         28.1971         28.1861         28.1695         28.1473         28.1195         28.0857         28.0461         28.0003         27.9481    
          27.8893         27.8237         27.7509         27.6705         27.5821         27.4850         27.3788         27.2626         27.1354         26.9963    
          26.8437         26.6759         26.4907         26.2849         26.0542         25.7924         25.4892         25.1265         24.6626         23.8851    
  25      28.2026         28.1971         28.1861         28.1695         28.1473         28.1195         28.0857         28.0461         28.0003         27.9481    
          27.8893         27.8237         27.7509         27.6705         27.5821         27.4850         27.3788         27.2626         27.1354         26.9963    
          26.8437         26.6759         26.4907         26.2849         26.0542         25.7924         25.4892         25.1265         24.6626         23.8851    
  26      28.2026         28.1971         28.1861         28.1695         28.1473         28.1195         28.0857         28.0461         28.0003         27.9481    
          27.8893         27.8237         27.7509         27.6705         27.5821         27.4850         27.3788         27.2626         27.1354         26.9963    
          26.8437         26.6759         26.4907         26.2849         26.0542         25.7924         25.4892         25.1265         24.6626         23.8851    
  27      28.2026         28.1971         28.1861         28.1695         28.1473         28.1195         28.0857         28.0461         28.0003         27.9481    
          27.8893         27.8237         27.7509         27.6705         27.5821         27.4850         27.3788         27.2626         27.1354         26.9963    
          26.8437         26.6759         26.4907         26.2849         26.0542         25.7924         25.4892         25.1265         24.6626         23.8851    
  28      28.2026         28.1971         28.1861         28.1695         28.1473         28.1195         28.0857         28.0461         28.0003         27.9481    
          27.8893         27.8237         27.7509         27.6705         27.5821         27.4850         27.3788         27.2626         27.1354         26.9963    
          26.8437         26.6759         26.4907         26.2849         26.0542         25.7924         25.4892         25.1265         24.6626         23.8851    
  29      28.2026         28.1971         28.1861         28.1695         28.1473         28.1195         28.0857         28.0461         28.0003         27.9481    
          27.8893         27.8237         27.7509         27.6705         27.5821         27.4850         27.3788         27.2626         27.1354         26.9963    
          26.8437         26.6759         26.4907         26.2849         26.0542         25.7924         25.4892         25.1265         24.6626         23.8851    
  30      28.2026         28.1971         28.1861         28.1695         28.1473         28.1195         28.0857         28.0461         28.0003         27.9481    
          27.8893         27.8237         27.7509         27.6705         27.5821         27.4850         27.3788         27.2626         27.1354         26.9963    
          26.8437         26.6759         26.4907         26.2849         26.0542         25.7924         25.4892         25.1265         24.6626         23.8851    

 HEAD WILL BE SAVED ON UNIT 1019 AT END OF TIME STEP    1, STRESS PERIOD   15



         TIME SUMMARY AT END OF TIME STEP    1 IN STRESS PERIOD   15
                    SECONDS     MINUTES      HOURS       DAYS        YEARS
                    -----------------------------------------------------------
   TIME STEP LENGTH 2.59200E+05  4320.0      72.000      3.0000     8.21355E-03
 STRESS PERIOD TIME 2.59200E+05  4320.0      72.000      3.0000     8.21355E-03
         TOTAL TIME 3.40416E+07 5.67360E+05  9456.0      394.00      1.0787    
 UBDSV1 SAVING           STO-SS ON UNIT   1018 AT TIME STEP      2, STRESS PERIOD     15
 UBDSV1 SAVING           STO-SY ON UNIT   1018 AT TIME STEP      2, STRESS PERIOD     15
 UBDSV1 SAVING     FLOW-JA-FACE ON UNIT   1018 AT TIME STEP      2, STRESS PERIOD     15
 UBDSV06 SAVING              RCH IN MODEL TEST_TRANS       PACKAGE TEST_TRANS      CONNECTED TO MODEL TEST_TRANS       PACKAGE RCHA             ON UNIT   1018 AT TIME STEP      2, STRESS PERIOD     15
 UBDSV06 SAVING              CHD IN MODEL TEST_TRANS       PACKAGE TEST_TRANS      CONNECTED TO MODEL TEST_TRANS       PACKAGE CHD              ON UNIT   1018 AT TIME STEP      2, STRESS PERIOD     15

 HEAD WILL BE SAVED ON UNIT 1019 AT END OF TIME STEP    2, STRESS PERIOD   15
 UBDSV1 SAVING           STO-SS ON UNIT   1018 AT TIME STEP      3, STRESS PERIOD     15
 UBDSV1 SAVING           STO-SY ON UNIT   1018 AT TIME STEP      3, STRESS PERIOD     15
 UBDSV1 SAVING     FLOW-JA-FACE ON UNIT   1018 AT TIME STEP      3, STRESS PERIOD     15
 UBDSV06 SAVING              RCH IN MODEL TEST_TRANS       PACKAGE TEST_TRANS      CONNECTED TO MODEL TEST_TRANS       PACKAGE RCHA             ON UNIT   1018 AT TIME STEP      3, STRESS PERIOD     15
 UBDSV06 SAVING              CHD IN MODEL TEST_TRANS       PACKAGE TEST_TRANS      CONNECTED TO MODEL TEST_TRANS       PACKAGE CHD              ON UNIT   1018 AT TIME STEP      3, STRESS PERIOD     15

 HEAD WILL BE SAVED ON UNIT 1019 AT END OF TIME STEP    3, STRESS PERIOD   15
 UBDSV1 SAVING           STO-SS ON UNIT   1018 AT TIME STEP      4, STRESS PERIOD     15
 UBDSV1 SAVING           STO-SY ON UNIT   1018 AT TIME STEP      4, STRESS PERIOD     15
 UBDSV1 SAVING     FLOW-JA-FACE ON UNIT   1018 AT TIME STEP      4, STRESS PERIOD     15
 UBDSV06 SAVING              RCH IN MODEL TEST_TRANS       PACKAGE TEST_TRANS      CONNECTED TO MODEL TEST_TRANS       PACKAGE RCHA             ON UNIT   1018 AT TIME STEP      4, STRESS PERIOD     15
 UBDSV06 SAVING              CHD IN MODEL TEST_TRANS       PACKAGE TEST_TRANS      CONNECTED TO MODEL TEST_TRANS       PACKAGE CHD              ON UNIT   1018 AT TIME STEP      4, STRESS PERIOD     15

 HEAD WILL BE SAVED ON UNIT 1019 AT END OF TIME STEP    4, STRESS PERIOD   15
 UBDSV1 SAVING           STO-SS ON UNIT   1018 AT TIME STEP      5, STRESS PERIOD     15
 UBDSV1 SAVING           STO-SY ON UNIT   1018 AT TIME STEP      5, STRESS PERIOD     15
 UBDSV1 SAVING     FLOW-JA-FACE ON UNIT   1018 AT TIME STEP      5, STRESS PERIOD     15
 UBDSV06 SAVING              RCH IN MODEL TEST_TRANS       PACKAGE TEST_TRANS      CONNECTED TO MODEL TEST_TRANS       PACKAGE RCHA             ON UNIT   1018 AT TIME STEP      5, STRESS PERIOD     15
 UBDSV06 SAVING              CHD IN MODEL TEST_TRANS       PACKAGE TEST_TRANS      CONNECTED TO MODEL TEST_TRANS       PACKAGE CHD              ON UNIT   1018 AT TIME STEP      5, STRESS PERIOD     15

 HEAD WILL BE SAVED ON UNIT 1019 AT END OF TIME STEP    5, STRESS PERIOD   15
 UBDSV1 SAVING           STO-SS ON UNIT   1018 AT TIME STEP      6, STRESS PERIOD     15
 UBDSV1 SAVING           STO-SY ON UNIT   1018 AT TIME STEP      6, STRESS PERIOD     15
 UBDSV1 SAVING     FLOW-JA-FACE ON UNIT   1018 AT TIME STEP      6, STRESS PERIOD     15
 UBDSV06 SAVING              RCH IN MODEL TEST_TRANS       PACKAGE TEST_TRANS      CONNECTED TO MODEL TEST_TRANS       PACKAGE RCHA             ON UNIT   1018 AT TIME STEP      6, STRESS PERIOD     15
 UBDSV06 SAVING              CHD IN MODEL TEST_TRANS       PACKAGE TEST_TRANS      CONNECTED TO MODEL TEST_TRANS       PACKAGE CHD              ON UNIT   1018 AT TIME STEP      6, STRESS PERIOD     15

 HEAD WILL BE SAVED ON UNIT 1019 AT END OF TIME STEP    6, STRESS PERIOD   15
 UBDSV1 SAVING           STO-SS ON UNIT   1018 AT TIME STEP      7, STRESS PERIOD     15
 UBDSV1 SAVING           STO-SY ON UNIT   1018 AT TIME STEP      7, STRESS PERIOD     15
 UBDSV1 SAVING     FLOW-JA-FACE ON UNIT   1018 AT TIME STEP      7, STRESS PERIOD     15
 UBDSV06 SAVING              RCH IN MODEL TEST_TRANS       PACKAGE TEST_TRANS      CONNECTED TO MODEL TEST_TRANS       PACKAGE RCHA             ON UNIT   1018 AT TIME STEP      7, STRESS PERIOD     15
 UBDSV06 SAVING              CHD IN MODEL TEST_TRANS       PACKAGE TEST_TRANS      CONNECTED TO MODEL TEST_TRANS       PACKAGE CHD              ON UNIT   1018 AT TIME STEP      7, STRESS PERIOD     15

 HEAD WILL BE SAVED ON UNIT 1019 AT END OF TIME STEP    7, STRESS PERIOD   15
 UBDSV1 SAVING           STO-SS ON UNIT   1018 AT TIME STEP      8, STRESS PERIOD     15
 UBDSV1 SAVING           STO-SY ON UNIT   1018 AT TIME STEP      8, STRESS PERIOD     15
 UBDSV1 SAVING     FLOW-JA-FACE ON UNIT   1018 AT TIME STEP      8, STRESS PERIOD     15
 UBDSV06 SAVING              RCH IN MODEL TEST_TRANS       PACKAGE TEST_TRANS      CONNECTED TO MODEL TEST_TRANS       PACKAGE RCHA             ON UNIT   1018 AT TIME STEP      8, STRESS PERIOD     15
 UBDSV06 SAVING              CHD IN MODEL TEST_TRANS       PACKAGE TEST_TRANS      CONNECTED TO MODEL TEST_TRANS       PACKAGE CHD              ON UNIT   1018 AT TIME STEP      8, STRESS PERIOD     15

 HEAD WILL BE SAVED ON UNIT 1019 AT END OF TIME STEP    8, STRESS PERIOD   15
 UBDSV1 SAVING           STO-SS ON UNIT   1018 AT TIME STEP      9, STRESS PERIOD     15
 UBDSV1 SAVING           STO-SY ON UNIT   1018 AT TIME STEP      9, STRESS PERIOD     15
 UBDSV1 SAVING     FLOW-JA-FACE ON UNIT   1018 AT TIME STEP      9, STRESS PERIOD     15
 UBDSV06 SAVING              RCH IN MODEL TEST_TRANS       PACKAGE TEST_TRANS      CONNECTED TO MODEL TEST_TRANS       PACKAGE RCHA             ON UNIT   1018 AT TIME STEP      9, STRESS PERIOD     15
 UBDSV06 SAVING              CHD IN MODEL TEST_TRANS       PACKAGE TEST_TRANS      CONNECTED TO MODEL TEST_TRANS       PACKAGE CHD              ON UNIT   1018 AT TIME STEP      9, STRESS PERIOD     15

 HEAD WILL BE SAVED ON UNIT 1019 AT END OF TIME STEP    9, STRESS PERIOD   15
 UBDSV1 SAVING           STO-SS ON UNIT   1018 AT TIME STEP     10, STRESS PERIOD     15
 UBDSV1 SAVING           STO-SY ON UNIT   1018 AT TIME STEP     10, STRESS PERIOD     15
 UBDSV1 SAVING     FLOW-JA-FACE ON UNIT   1018 AT TIME STEP     10, STRESS PERIOD     15
 UBDSV06 SAVING              RCH IN MODEL TEST_TRANS       PACKAGE TEST_TRANS      CONNECTED TO MODEL TEST_TRANS       PACKAGE RCHA             ON UNIT   1018 AT TIME STEP     10, STRESS PERIOD     15
 UBDSV06 SAVING              CHD IN MODEL TEST_TRANS       PACKAGE TEST_TRANS      CONNECTED TO MODEL TEST_TRANS       PACKAGE CHD              ON UNIT   1018 AT TIME STEP     10, STRESS PERIOD     15
1
  HEAD IN LAYER   1 AT END OF TIME STEP  10 IN STRESS PERIOD   15
  ---------------------------------------------------------------------------

                1               2               3               4               5               6               7               8               9              10
               11              12              13              14              15              16              17              18              19              20
               21              22              23              24              25              26              27              28              29              30
 ................................................................................................................................................................
   1      28.1961         28.1905         28.1791         28.1620         28.1392         28.1104         28.0757         28.0349         27.9877         27.9341    
          27.8738         27.8066         27.7320         27.6497         27.5594         27.4605         27.3523         27.2342         27.1053         26.9645    
          26.8105         26.6416         26.4555         26.2494         26.0191         25.7585         25.4578         25.0992         24.6425         23.8851    
   2      28.1961         28.1905         28.1791         28.1620         28.1392         28.1104         28.0757         28.0349         27.9877         27.9341    
          27.8738         27.8066         27.7320         27.6497         27.5594         27.4605         27.3523         27.2342         27.1053         26.9645    
          26.8105         26.6416         26.4555         26.2494         26.0191         25.7585         25.4578         25.0992         24.6425         23.8851    
   3      28.1961         28.1905         28.1791         28.1620         28.1392         28.1104         28.0757         28.0349         27.9877         27.9341    
          27.8738         27.8066         27.7320         27.6497         27.5594         27.4605         27.3523         27.2342         27.1053         26.9645    
          26.8105         26.6416         26.4555         26.2494         26.0191         25.7585         25.4578         25.0992         24.6425         23.8851    
   4      28.1961         28.1905         28.1791         28.1620         28.1392         28.1104         28.0757         28.0349         27.9877         27.9341    
          27.8738         27.8066         27.7320         27.6497         27.5594         27.4605         27.3523         27.2342         27.1053         26.9645    
          26.8105         26.6416         26.4555         26.2494         26.0191         25.7585         25.4578         25.0992         24.6425         23.8851    
   5      28.1961         28.1905         28.1791         28.1620         28.1392         28.1104         28.0757         28.0349         27.9877         27.9341    
          27.8738         27.8066         27.7320         27.6497         27.5594         27.4605         27.3523         27.2342         27.1053         26.9645    
          26.8105         26.6416         26.4555         26.2494         26.0191         25.7585         25.4578         25.0992         24.6425         23.8851    
   6      28.1961         28.1905         28.1791         28.1620         28.1392         28.1104         28.0757         28.0349         27.9877         27.9341    
          27.8738         27.8066         27.7320         27.6497         27.5594         27.4605         27.3523         27.2342         27.1053         26.9645    
          26.8105         26.6416         26.4555         26.2494         26.0191         25.7585         25.4578         25.0992         24.6425         23.8851    
   7      28.1961         28.1905         28.1791         28.1620         28.1392         28.1104         28.0757         28.0349         27.9877         27.9341    
          27.8738         27.8066         27.7320         27.6497         27.5594         27.4605         27.3523         27.2342         27.1053         26.9645    
          26.8105         26.6416         26.4555         26.2494         26.0191         25.7585         25.4578         25.0992         24.6425         23.8851    
   8      28.1961         28.1905         28.1791         28.1620         28.1392         28.1104         28.0757         28.0349         27.9877         27.9341    
          27.8738         27.8066         27.7320         27.6497         27.5594         27.4605         27.3523         27.2342         27.1053         26.9645    
          26.8105         26.6416         26.4555         26.2494         26.0191         25.7585         25.4578         25.0992         24.6425         23.8851    
   9      28.1961         28.1905         28.1791         28.1620         28.1392         28.1104         28.0757         28.0349         27.9877         27.9341    
          27.8738         27.8066         27.7320         27.6497         27.5594         27.4605         27.3523         27.2342         27.1053         26.9645    
          26.8105         26.6416         26.4555         26.2494         26.0191         25.7585         25.4578         25.0992         24.6425         23.8851    
  10      28.1961         28.1905         28.1791         28.1620         28.1392         28.1104         28.0757         28.0349         27.9877         27.9341    
          27.8738         27.8066         27.7320         27.6497         27.5594         27.4605         27.3523         27.2342         27.1053         26.9645    
          26.8105         26.6416         26.4555         26.2494         26.0191         25.7585         25.4578         25.0992         24.6425         23.8851    
  11      28.1961         28.1905         28.1791         28.1620         28.1392         28.1104         28.0757         28.0349         27.9877         27.9341    
          27.8738         27.8066         27.7320         27.6497         27.5594         27.4605         27.3523         27.2342         27.1053         26.9645    
          26.8105         26.6416         26.4555         26.2494         26.0191         25.7585         25.4578         25.0992         24.6425         23.8851    
  12      28.1961         28.1905         28.1791         28.1620         28.1392         28.1104         28.0757         28.0349         27.9877         27.9341    
          27.8738         27.8066         27.7320         27.6497         27.5594         27.4605         27.3523         27.2342         27.1053         26.9645    
          26.8105         26.6416         26.4555         26.2494         26.0191         25.7585         25.4578         25.0992         24.6425         23.8851    
  13      28.1961         28.1905         28.1791         28.1620         28.1392         28.1104         28.0757         28.0349         27.9877         27.9341    
          27.8738         27.8066         27.7320         27.6497         27.5594         27.4605         27.3523         27.2342         27.1053         26.9645    
          26.8105         26.6416         26.4555         26.2494         26.0191         25.7585         25.4578         25.0992         24.6425         23.8851    
  14      28.1961         28.1905         28.1791         28.1620         28.1392         28.1104         28.0757         28.0349         27.9877         27.9341    
          27.8738         27.8066         27.7320         27.6497         27.5594         27.4605         27.3523         27.2342         27.1053         26.9645    
          26.8105         26.6416         26.4555         26.2494         26.0191         25.7585         25.4578         25.0992         24.6425         23.8851    
  15      28.1961         28.1905         28.1791         28.1620         28.1392         28.1104         28.0757         28.0349         27.9877         27.9341    
          27.8738         27.8066         27.7320         27.6497         27.5594         27.4605         27.3523         27.2342         27.1053         26.9645    
          26.8105         26.6416         26.4555         26.2494         26.0191         25.7585         25.4578         25.0992         24.6425         23.8851    
  16      28.1961         28.1905         28.1791         28.1620         28.1392         28.1104         28.0757         28.0349         27.9877         27.9341    
          27.8738         27.8066         27.7320         27.6497         27.5594         27.4605         27.3523         27.2342         27.1053         26.9645    
          26.8105         26.6416         26.4555         26.2494         26.0191         25.7585         25.4578         25.0992         24.6425         23.8851    
  17      28.1961         28.1905         28.1791         28.1620         28.1392         28.1104         28.0757         28.0349         27.9877         27.9341    
          27.8738         27.8066         27.7320         27.6497         27.5594         27.4605         27.3523         27.2342         27.1053         26.9645    
          26.8105         26.6416         26.4555         26.2494         26.0191         25.7585         25.4578         25.0992         24.6425         23.8851    
  18      28.1961         28.1905         28.1791         28.1620         28.1392         28.1104         28.0757         28.0349         27.9877         27.9341    
          27.8738         27.8066         27.7320         27.6497         27.5594         27.4605         27.3523         27.2342         27.1053         26.9645    
          26.8105         26.6416         26.4555         26.2494         26.0191         25.7585         25.4578         25.0992         24.6425         23.8851    
  19      28.1961         28.1905         28.1791         28.1620         28.1392         28.1104         28.0757         28.0349         27.9877         27.9341    
          27.8738         27.8066         27.7320         27.6497         27.5594         27.4605         27.3523         27.2342         27.1053         26.9645    
          26.8105         26.6416         26.4555         26.2494         26.0191         25.7585         25.4578         25.0992         24.6425         23.8851    
  20      28.1961         28.1905         28.1791         28.1620         28.1392         28.1104         28.0757         28.0349         27.9877         27.9341    
          27.8738         27.8066         27.7320         27.6497         27.5594         27.4605         27.3523         27.2342         27.1053         26.9645    
          26.8105         26.6416         26.4555         26.2494         26.0191         25.7585         25.4578         25.0992         24.6425         23.8851    
  21      28.1961         28.1905         28.1791         28.1620         28.1392         28.1104         28.0757         28.0349         27.9877         27.9341    
          27.8738         27.8066         27.7320         27.6497         27.5594         27.4605         27.3523         27.2342         27.1053         26.9645    
          26.8105         26.6416         26.4555         26.2494         26.0191         25.7585         25.4578         25.0992         24.6425         23.8851    
  22      28.1961         28.1905         28.1791         28.1620         28.1392         28.1104         28.0757         28.0349         27.9877         27.9341    
          27.8738         27.8066         27.7320         27.6497         27.5594         27.4605         27.3523         27.2342         27.1053         26.9645    
          26.8105         26.6416         26.4555         26.2494         26.0191         25.7585         25.4578         25.0992         24.6425         23.8851    
  23      28.1961         28.1905         28.1791         28.1620         28.1392         28.1104         28.0757         28.0349         27.9877         27.9341    
          27.8738         27.8066         27.7320         27.6497         27.5594         27.4605         27.3523         27.2342         27.1053         26.9645    
          26.8105         26.6416         26.4555         26.2494         26.0191         25.7585         25.4578         25.0992         24.6425         23.8851    
  24      28.1961         28.1905         28.1791         28.1620         28.1392         28.1104         28.0757         28.0349         27.9877         27.9341    
          27.8738         27.8066         27.7320         27.6497         27.5594         27.4605         27.3523         27.2342         27.1053         26.9645    
          26.8105         26.6416         26.4555         26.2494         26.0191         25.7585         25.4578         25.0992         24.6425         23.8851    
  25      28.1961         28.1905         28.1791         28.1620         28.1392         28.1104         28.0757         28.0349         27.9877         27.9341    
          27.8738         27.8066         27.7320         27.6497         27.5594         27.4605         27.3523         27.2342         27.1053         26.9645    
          26.8105         26.6416         26.4555         26.2494         26.0191         25.7585         25.4578         25.0992         24.6425         23.8851    
  26      28.1961         28.1905         28.1791         28.1620         28.1392         28.1104         28.0757         28.0349         27.9877         27.9341    
          27.8738         27.8066         27.7320         27.6497         27.5594         27.4605         27.3523         27.2342         27.1053         26.9645    
          26.8105         26.6416         26.4555         26.2494         26.0191         25.7585         25.4578         25.0992         24.6425         23.8851    
  27      28.1961         28.1905         28.1791         28.1620         28.1392         28.1104         28.0757         28.0349         27.9877         27.9341    
          27.8738         27.8066         27.7320         27.6497         27.5594         27.4605         27.3523         27.2342         27.1053         26.9645    
          26.8105         26.6416         26.4555         26.2494         26.0191         25.7585         25.4578         25.0992         24.6425         23.8851    
  28      28.1961         28.1905         28.1791         28.1620         28.1392         28.1104         28.0757         28.0349         27.9877         27.9341    
          27.8738         27.8066         27.7320         27.6497         27.5594         27.4605         27.3523         27.2342         27.1053         26.9645    
          26.8105         26.6416         26.4555         26.2494         26.0191         25.7585         25.4578         25.0992         24.6425         23.8851    
  29      28.1961         28.1905         28.1791         28.1620         28.1392         28.1104         28.0757         28.0349         27.9877         27.9341    
          27.8738         27.8066         27.7320         27.6497         27.5594         27.4605         27.3523         27.2342         27.1053         26.9645    
          26.8105         26.6416         26.4555         26.2494         26.0191         25.7585         25.4578         25.0992         24.6425         23.8851    
  30      28.1961         28.1905         28.1791         28.1620         28.1392         28.1104         28.0757         28.0349         27.9877         27.9341    
          27.8738         27.8066         27.7320         27.6497         27.5594         27.4605         27.3523         27.2342         27.1053         26.9645    
          26.8105         26.6416         26.4555         26.2494         26.0191         25.7585         25.4578         25.0992         24.6425         23.8851    

 HEAD WILL BE SAVED ON UNIT 1019 AT END OF TIME STEP   10, STRESS PERIOD   15


  VOLUME BUDGET FOR ENTIRE MODEL AT END OF TIME STEP   10, STRESS PERIOD  15
  ---------------------------------------------------------------------------------------------------

     CUMULATIVE VOLUME      L**3       RATES FOR THIS TIME STEP      L**3/T          PACKAGE NAME    
     ------------------                 ------------------------                     ----------------

           IN:                                      IN:
           ---                                      ---
              STO-SS =          21.8296                STO-SS =       1.7604E-02     STORAGE         
              STO-SY =       14014.0487                STO-SY =          11.2968     STORAGE         
                 RCH =       74963.0298                   RCH =         214.5203     RCHA            
                 CHD =         597.9608                   CHD =           0.0000     CHD             

            TOTAL IN =       89596.8689              TOTAL IN =         225.8346

          OUT:                                     OUT:
          ----                                     ----
              STO-SS =          17.8445                STO-SS =           0.0000     STORAGE         
              STO-SY =       11515.2583                STO-SY =           0.0000     STORAGE         
                 RCH =           0.0000                   RCH =           0.0000     RCHA            
                 CHD =       78063.4536                   CHD =         225.8309     CHD             

           TOTAL OUT =       89596.5565             TOTAL OUT =         225.8309

            IN - OUT =           0.3124              IN - OUT =       3.7012E-03

 PERCENT DISCREPANCY =           0.00     PERCENT DISCREPANCY =           0.00




         TIME SUMMARY AT END OF TIME STEP   10 IN STRESS PERIOD   15
                    SECONDS     MINUTES      HOURS       DAYS        YEARS
                    -----------------------------------------------------------
   TIME STEP LENGTH 2.59200E+05  4320.0      72.000      3.0000     8.21355E-03
 STRESS PERIOD TIME 2.59200E+06  43200.      720.00      30.000     8.21355E-02
         TOTAL TIME 3.63744E+07 6.06240E+05  10104.      421.00      1.1526    

 OUTPUT CONTROL FOR STRESS PERIOD 16 IS REPEATED USING SETTINGS FROM A PREVIOUS STRESS PERIOD.


 STRESS PERIOD 16 IS TRANSIENT


                 RECHARGE =  0.1643840E-02
 UBDSV1 SAVING           STO-SS ON UNIT   1018 AT TIME STEP      1, STRESS PERIOD     16
 UBDSV1 SAVING           STO-SY ON UNIT   1018 AT TIME STEP      1, STRESS PERIOD     16
 UBDSV1 SAVING     FLOW-JA-FACE ON UNIT   1018 AT TIME STEP      1, STRESS PERIOD     16
 UBDSV06 SAVING              RCH IN MODEL TEST_TRANS       PACKAGE TEST_TRANS      CONNECTED TO MODEL TEST_TRANS       PACKAGE RCHA             ON UNIT   1018 AT TIME STEP      1, STRESS PERIOD     16
 UBDSV06 SAVING              CHD IN MODEL TEST_TRANS       PACKAGE TEST_TRANS      CONNECTED TO MODEL TEST_TRANS       PACKAGE CHD              ON UNIT   1018 AT TIME STEP      1, STRESS PERIOD     16
1
  HEAD IN LAYER   1 AT END OF TIME STEP   1 IN STRESS PERIOD   16
  ---------------------------------------------------------------------------

                1               2               3               4               5               6               7               8               9              10
               11              12              13              14              15              16              17              18              19              20
               21              22              23              24              25              26              27              28              29              30
 ................................................................................................................................................................
   1      28.1827         28.1770         28.1657         28.1486         28.1256         28.0969         28.0621         28.0212         27.9740         27.9203    
          27.8599         27.7925         27.7179         27.6356         27.5452         27.4462         27.3380         27.2200         27.0911         26.9505    
          26.7969         26.6286         26.4436         26.2394         26.0123         25.7578         25.4690         25.1359         24.7434         24.2710    
   2      28.1827         28.1770         28.1657         28.1486         28.1256         28.0969         28.0621         28.0212         27.9740         27.9203    
          27.8599         27.7925         27.7179         27.6356         27.5452         27.4462         27.3380         27.2200         27.0911         26.9505    
          26.7969         26.6286         26.4436         26.2394         26.0123         25.7578         25.4690         25.1359         24.7434         24.2710    
   3      28.1827         28.1770         28.1657         28.1486         28.1256         28.0969         28.0621         28.0212         27.9740         27.9203    
          27.8599         27.7925         27.7179         27.6356         27.5452         27.4462         27.3380         27.2200         27.0911         26.9505    
          26.7969         26.6286         26.4436         26.2394         26.0123         25.7578         25.4690         25.1359         24.7434         24.2710    
   4      28.1827         28.1770         28.1657         28.1486         28.1256         28.0969         28.0621         28.0212         27.9740         27.9203    
          27.8599         27.7925         27.7179         27.6356         27.5452         27.4462         27.3380         27.2200         27.0911         26.9505    
          26.7969         26.6286         26.4436         26.2394         26.0123         25.7578         25.4690         25.1359         24.7434         24.2710    
   5      28.1827         28.1770         28.1657         28.1486         28.1256         28.0969         28.0621         28.0212         27.9740         27.9203    
          27.8599         27.7925         27.7179         27.6356         27.5452         27.4462         27.3380         27.2200         27.0911         26.9505    
          26.7969         26.6286         26.4436         26.2394         26.0123         25.7578         25.4690         25.1359         24.7434         24.2710    
   6      28.1827         28.1770         28.1657         28.1486         28.1256         28.0969         28.0621         28.0212         27.9740         27.9203    
          27.8599         27.7925         27.7179         27.6356         27.5452         27.4462         27.3380         27.2200         27.0911         26.9505    
          26.7969         26.6286         26.4436         26.2394         26.0123         25.7578         25.4690         25.1359         24.7434         24.2710    
   7      28.1827         28.1770         28.1657         28.1486         28.1256         28.0969         28.0621         28.0212         27.9740         27.9203    
          27.8599         27.7925         27.7179         27.6356         27.5452         27.4462         27.3380         27.2200         27.0911         26.9505    
          26.7969         26.6286         26.4436         26.2394         26.0123         25.7578         25.4690         25.1359         24.7434         24.2710    
   8      28.1827         28.1770         28.1657         28.1486         28.1256         28.0969         28.0621         28.0212         27.9740         27.9203    
          27.8599         27.7925         27.7179         27.6356         27.5452         27.4462         27.3380         27.2200         27.0911         26.9505    
          26.7969         26.6286         26.4436         26.2394         26.0123         25.7578         25.4690         25.1359         24.7434         24.2710    
   9      28.1827         28.1770         28.1657         28.1486         28.1256         28.0969         28.0621         28.0212         27.9740         27.9203    
          27.8599         27.7925         27.7179         27.6356         27.5452         27.4462         27.3380         27.2200         27.0911         26.9505    
          26.7969         26.6286         26.4436         26.2394         26.0123         25.7578         25.4690         25.1359         24.7434         24.2710    
  10      28.1827         28.1770         28.1657         28.1486         28.1256         28.0969         28.0621         28.0212         27.9740         27.9203    
          27.8599         27.7925         27.7179         27.6356         27.5452         27.4462         27.3380         27.2200         27.0911         26.9505    
          26.7969         26.6286         26.4436         26.2394         26.0123         25.7578         25.4690         25.1359         24.7434         24.2710    
  11      28.1827         28.1770         28.1657         28.1486         28.1256         28.0969         28.0621         28.0212         27.9740         27.9203    
          27.8599         27.7925         27.7179         27.6356         27.5452         27.4462         27.3380         27.2200         27.0911         26.9505    
          26.7969         26.6286         26.4436         26.2394         26.0123         25.7578         25.4690         25.1359         24.7434         24.2710    
  12      28.1827         28.1770         28.1657         28.1486         28.1256         28.0969         28.0621         28.0212         27.9740         27.9203    
          27.8599         27.7925         27.7179         27.6356         27.5452         27.4462         27.3380         27.2200         27.0911         26.9505    
          26.7969         26.6286         26.4436         26.2394         26.0123         25.7578         25.4690         25.1359         24.7434         24.2710    
  13      28.1827         28.1770         28.1657         28.1486         28.1256         28.0969         28.0621         28.0212         27.9740         27.9203    
          27.8599         27.7925         27.7179         27.6356         27.5452         27.4462         27.3380         27.2200         27.0911         26.9505    
          26.7969         26.6286         26.4436         26.2394         26.0123         25.7578         25.4690         25.1359         24.7434         24.2710    
  14      28.1827         28.1770         28.1657         28.1486         28.1256         28.0969         28.0621         28.0212         27.9740         27.9203    
          27.8599         27.7925         27.7179         27.6356         27.5452         27.4462         27.3380         27.2200         27.0911         26.9505    
          26.7969         26.6286         26.4436         26.2394         26.0123         25.7578         25.4690         25.1359         24.7434         24.2710    
  15      28.1827         28.1770         28.1657         28.1486         28.1256         28.0969         28.0621         28.0212         27.9740         27.9203    
          27.8599         27.7925         27.7179         27.6356         27.5452         27.4462         27.3380         27.2200         27.0911         26.9505    
          26.7969         26.6286         26.4436         26.2394         26.0123         25.7578         25.4690         25.1359         24.7434         24.2710    
  16      28.1827         28.1770         28.1657         28.1486         28.1256         28.0969         28.0621         28.0212         27.9740         27.9203    
          27.8599         27.7925         27.7179         27.6356         27.5452         27.4462         27.3380         27.2200         27.0911         26.9505    
          26.7969         26.6286         26.4436         26.2394         26.0123         25.7578         25.4690         25.1359         24.7434         24.2710    
  17      28.1827         28.1770         28.1657         28.1486         28.1256         28.0969         28.0621         28.0212         27.9740         27.9203    
          27.8599         27.7925         27.7179         27.6356         27.5452         27.4462         27.3380         27.2200         27.0911         26.9505    
          26.7969         26.6286         26.4436         26.2394         26.0123         25.7578         25.4690         25.1359         24.7434         24.2710    
  18      28.1827         28.1770         28.1657         28.1486         28.1256         28.0969         28.0621         28.0212         27.9740         27.9203    
          27.8599         27.7925         27.7179         27.6356         27.5452         27.4462         27.3380         27.2200         27.0911         26.9505    
          26.7969         26.6286         26.4436         26.2394         26.0123         25.7578         25.4690         25.1359         24.7434         24.2710    
  19      28.1827         28.1770         28.1657         28.1486         28.1256         28.0969         28.0621         28.0212         27.9740         27.9203    
          27.8599         27.7925         27.7179         27.6356         27.5452         27.4462         27.3380         27.2200         27.0911         26.9505    
          26.7969         26.6286         26.4436         26.2394         26.0123         25.7578         25.4690         25.1359         24.7434         24.2710    
  20      28.1827         28.1770         28.1657         28.1486         28.1256         28.0969         28.0621         28.0212         27.9740         27.9203    
          27.8599         27.7925         27.7179         27.6356         27.5452         27.4462         27.3380         27.2200         27.0911         26.9505    
          26.7969         26.6286         26.4436         26.2394         26.0123         25.7578         25.4690         25.1359         24.7434         24.2710    
  21      28.1827         28.1770         28.1657         28.1486         28.1256         28.0969         28.0621         28.0212         27.9740         27.9203    
          27.8599         27.7925         27.7179         27.6356         27.5452         27.4462         27.3380         27.2200         27.0911         26.9505    
          26.7969         26.6286         26.4436         26.2394         26.0123         25.7578         25.4690         25.1359         24.7434         24.2710    
  22      28.1827         28.1770         28.1657         28.1486         28.1256         28.0969         28.0621         28.0212         27.9740         27.9203    
          27.8599         27.7925         27.7179         27.6356         27.5452         27.4462         27.3380         27.2200         27.0911         26.9505    
          26.7969         26.6286         26.4436         26.2394         26.0123         25.7578         25.4690         25.1359         24.7434         24.2710    
  23      28.1827         28.1770         28.1657         28.1486         28.1256         28.0969         28.0621         28.0212         27.9740         27.9203    
          27.8599         27.7925         27.7179         27.6356         27.5452         27.4462         27.3380         27.2200         27.0911         26.9505    
          26.7969         26.6286         26.4436         26.2394         26.0123         25.7578         25.4690         25.1359         24.7434         24.2710    
  24      28.1827         28.1770         28.1657         28.1486         28.1256         28.0969         28.0621         28.0212         27.9740         27.9203    
          27.8599         27.7925         27.7179         27.6356         27.5452         27.4462         27.3380         27.2200         27.0911         26.9505    
          26.7969         26.6286         26.4436         26.2394         26.0123         25.7578         25.4690         25.1359         24.7434         24.2710    
  25      28.1827         28.1770         28.1657         28.1486         28.1256         28.0969         28.0621         28.0212         27.9740         27.9203    
          27.8599         27.7925         27.7179         27.6356         27.5452         27.4462         27.3380         27.2200         27.0911         26.9505    
          26.7969         26.6286         26.4436         26.2394         26.0123         25.7578         25.4690         25.1359         24.7434         24.2710    
  26      28.1827         28.1770         28.1657         28.1486         28.1256         28.0969         28.0621         28.0212         27.9740         27.9203    
          27.8599         27.7925         27.7179         27.6356         27.5452         27.4462         27.3380         27.2200         27.0911         26.9505    
          26.7969         26.6286         26.4436         26.2394         26.0123         25.7578         25.4690         25.1359         24.7434         24.2710    
  27      28.1827         28.1770         28.1657         28.1486         28.1256         28.0969         28.0621         28.0212         27.9740         27.9203    
          27.8599         27.7925         27.7179         27.6356         27.5452         27.4462         27.3380         27.2200         27.0911         26.9505    
          26.7969         26.6286         26.4436         26.2394         26.0123         25.7578         25.4690         25.1359         24.7434         24.2710    
  28      28.1827         28.1770         28.1657         28.1486         28.1256         28.0969         28.0621         28.0212         27.9740         27.9203    
          27.8599         27.7925         27.7179         27.6356         27.5452         27.4462         27.3380         27.2200         27.0911         26.9505    
          26.7969         26.6286         26.4436         26.2394         26.0123         25.7578         25.4690         25.1359         24.7434         24.2710    
  29      28.1827         28.1770         28.1657         28.1486         28.1256         28.0969         28.0621         28.0212         27.9740         27.9203    
          27.8599         27.7925         27.7179         27.6356         27.5452         27.4462         27.3380         27.2200         27.0911         26.9505    
          26.7969         26.6286         26.4436         26.2394         26.0123         25.7578         25.4690         25.1359         24.7434         24.2710    
  30      28.1827         28.1770         28.1657         28.1486         28.1256         28.0969         28.0621         28.0212         27.9740         27.9203    
          27.8599         27.7925         27.7179         27.6356         27.5452         27.4462         27.3380         27.2200         27.0911         26.9505    
          26.7969         26.6286         26.4436         26.2394         26.0123         25.7578         25.4690         25.1359         24.7434         24.2710    

 HEAD WILL BE SAVED ON UNIT 1019 AT END OF TIME STEP    1, STRESS PERIOD   16



         TIME SUMMARY AT END OF TIME STEP    1 IN STRESS PERIOD   16
                    SECONDS     MINUTES      HOURS       DAYS        YEARS
                    -----------------------------------------------------------
   TIME STEP LENGTH 2.59200E+05  4320.0      72.000      3.0000     8.21355E-03
 STRESS PERIOD TIME 2.59200E+05  4320.0      72.000      3.0000     8.21355E-03
         TOTAL TIME 3.66336E+07 6.10560E+05  10176.      424.00      1.1608    
 UBDSV1 SAVING           STO-SS ON UNIT   1018 AT TIME STEP      2, STRESS PERIOD     16
 UBDSV1 SAVING           STO-SY ON UNIT   1018 AT TIME STEP      2, STRESS PERIOD     16
 UBDSV1 SAVING     FLOW-JA-FACE ON UNIT   1018 AT TIME STEP      2, STRESS PERIOD     16
 UBDSV06 SAVING              RCH IN MODEL TEST_TRANS       PACKAGE TEST_TRANS      CONNECTED TO MODEL TEST_TRANS       PACKAGE RCHA             ON UNIT   1018 AT TIME STEP      2, STRESS PERIOD     16
 UBDSV06 SAVING              CHD IN MODEL TEST_TRANS       PACKAGE TEST_TRANS      CONNECTED TO MODEL TEST_TRANS       PACKAGE CHD              ON UNIT   1018 AT TIME STEP      2, STRESS PERIOD     16

 HEAD WILL BE SAVED ON UNIT 1019 AT END OF TIME STEP    2, STRESS PERIOD   16
 UBDSV1 SAVING           STO-SS ON UNIT   1018 AT TIME STEP      3, STRESS PERIOD     16
 UBDSV1 SAVING           STO-SY ON UNIT   1018 AT TIME STEP      3, STRESS PERIOD     16
 UBDSV1 SAVING     FLOW-JA-FACE ON UNIT   1018 AT TIME STEP      3, STRESS PERIOD     16
 UBDSV06 SAVING              RCH IN MODEL TEST_TRANS       PACKAGE TEST_TRANS      CONNECTED TO MODEL TEST_TRANS       PACKAGE RCHA             ON UNIT   1018 AT TIME STEP      3, STRESS PERIOD     16
 UBDSV06 SAVING              CHD IN MODEL TEST_TRANS       PACKAGE TEST_TRANS      CONNECTED TO MODEL TEST_TRANS       PACKAGE CHD              ON UNIT   1018 AT TIME STEP      3, STRESS PERIOD     16

 HEAD WILL BE SAVED ON UNIT 1019 AT END OF TIME STEP    3, STRESS PERIOD   16
 UBDSV1 SAVING           STO-SS ON UNIT   1018 AT TIME STEP      4, STRESS PERIOD     16
 UBDSV1 SAVING           STO-SY ON UNIT   1018 AT TIME STEP      4, STRESS PERIOD     16
 UBDSV1 SAVING     FLOW-JA-FACE ON UNIT   1018 AT TIME STEP      4, STRESS PERIOD     16
 UBDSV06 SAVING              RCH IN MODEL TEST_TRANS       PACKAGE TEST_TRANS      CONNECTED TO MODEL TEST_TRANS       PACKAGE RCHA             ON UNIT   1018 AT TIME STEP      4, STRESS PERIOD     16
 UBDSV06 SAVING              CHD IN MODEL TEST_TRANS       PACKAGE TEST_TRANS      CONNECTED TO MODEL TEST_TRANS       PACKAGE CHD              ON UNIT   1018 AT TIME STEP      4, STRESS PERIOD     16

 HEAD WILL BE SAVED ON UNIT 1019 AT END OF TIME STEP    4, STRESS PERIOD   16
 UBDSV1 SAVING           STO-SS ON UNIT   1018 AT TIME STEP      5, STRESS PERIOD     16
 UBDSV1 SAVING           STO-SY ON UNIT   1018 AT TIME STEP      5, STRESS PERIOD     16
 UBDSV1 SAVING     FLOW-JA-FACE ON UNIT   1018 AT TIME STEP      5, STRESS PERIOD     16
 UBDSV06 SAVING              RCH IN MODEL TEST_TRANS       PACKAGE TEST_TRANS      CONNECTED TO MODEL TEST_TRANS       PACKAGE RCHA             ON UNIT   1018 AT TIME STEP      5, STRESS PERIOD     16
 UBDSV06 SAVING              CHD IN MODEL TEST_TRANS       PACKAGE TEST_TRANS      CONNECTED TO MODEL TEST_TRANS       PACKAGE CHD              ON UNIT   1018 AT TIME STEP      5, STRESS PERIOD     16

 HEAD WILL BE SAVED ON UNIT 1019 AT END OF TIME STEP    5, STRESS PERIOD   16
 UBDSV1 SAVING           STO-SS ON UNIT   1018 AT TIME STEP      6, STRESS PERIOD     16
 UBDSV1 SAVING           STO-SY ON UNIT   1018 AT TIME STEP      6, STRESS PERIOD     16
 UBDSV1 SAVING     FLOW-JA-FACE ON UNIT   1018 AT TIME STEP      6, STRESS PERIOD     16
 UBDSV06 SAVING              RCH IN MODEL TEST_TRANS       PACKAGE TEST_TRANS      CONNECTED TO MODEL TEST_TRANS       PACKAGE RCHA             ON UNIT   1018 AT TIME STEP      6, STRESS PERIOD     16
 UBDSV06 SAVING              CHD IN MODEL TEST_TRANS       PACKAGE TEST_TRANS      CONNECTED TO MODEL TEST_TRANS       PACKAGE CHD              ON UNIT   1018 AT TIME STEP      6, STRESS PERIOD     16

 HEAD WILL BE SAVED ON UNIT 1019 AT END OF TIME STEP    6, STRESS PERIOD   16
 UBDSV1 SAVING           STO-SS ON UNIT   1018 AT TIME STEP      7, STRESS PERIOD     16
 UBDSV1 SAVING           STO-SY ON UNIT   1018 AT TIME STEP      7, STRESS PERIOD     16
 UBDSV1 SAVING     FLOW-JA-FACE ON UNIT   1018 AT TIME STEP      7, STRESS PERIOD     16
 UBDSV06 SAVING              RCH IN MODEL TEST_TRANS       PACKAGE TEST_TRANS      CONNECTED TO MODEL TEST_TRANS       PACKAGE RCHA             ON UNIT   1018 AT TIME STEP      7, STRESS PERIOD     16
 UBDSV06 SAVING              CHD IN MODEL TEST_TRANS       PACKAGE TEST_TRANS      CONNECTED TO MODEL TEST_TRANS       PACKAGE CHD              ON UNIT   1018 AT TIME STEP      7, STRESS PERIOD     16

 HEAD WILL BE SAVED ON UNIT 1019 AT END OF TIME STEP    7, STRESS PERIOD   16
 UBDSV1 SAVING           STO-SS ON UNIT   1018 AT TIME STEP      8, STRESS PERIOD     16
 UBDSV1 SAVING           STO-SY ON UNIT   1018 AT TIME STEP      8, STRESS PERIOD     16
 UBDSV1 SAVING     FLOW-JA-FACE ON UNIT   1018 AT TIME STEP      8, STRESS PERIOD     16
 UBDSV06 SAVING              RCH IN MODEL TEST_TRANS       PACKAGE TEST_TRANS      CONNECTED TO MODEL TEST_TRANS       PACKAGE RCHA             ON UNIT   1018 AT TIME STEP      8, STRESS PERIOD     16
 UBDSV06 SAVING              CHD IN MODEL TEST_TRANS       PACKAGE TEST_TRANS      CONNECTED TO MODEL TEST_TRANS       PACKAGE CHD              ON UNIT   1018 AT TIME STEP      8, STRESS PERIOD     16

 HEAD WILL BE SAVED ON UNIT 1019 AT END OF TIME STEP    8, STRESS PERIOD   16
 UBDSV1 SAVING           STO-SS ON UNIT   1018 AT TIME STEP      9, STRESS PERIOD     16
 UBDSV1 SAVING           STO-SY ON UNIT   1018 AT TIME STEP      9, STRESS PERIOD     16
 UBDSV1 SAVING     FLOW-JA-FACE ON UNIT   1018 AT TIME STEP      9, STRESS PERIOD     16
 UBDSV06 SAVING              RCH IN MODEL TEST_TRANS       PACKAGE TEST_TRANS      CONNECTED TO MODEL TEST_TRANS       PACKAGE RCHA             ON UNIT   1018 AT TIME STEP      9, STRESS PERIOD     16
 UBDSV06 SAVING              CHD IN MODEL TEST_TRANS       PACKAGE TEST_TRANS      CONNECTED TO MODEL TEST_TRANS       PACKAGE CHD              ON UNIT   1018 AT TIME STEP      9, STRESS PERIOD     16

 HEAD WILL BE SAVED ON UNIT 1019 AT END OF TIME STEP    9, STRESS PERIOD   16
 UBDSV1 SAVING           STO-SS ON UNIT   1018 AT TIME STEP     10, STRESS PERIOD     16
 UBDSV1 SAVING           STO-SY ON UNIT   1018 AT TIME STEP     10, STRESS PERIOD     16
 UBDSV1 SAVING     FLOW-JA-FACE ON UNIT   1018 AT TIME STEP     10, STRESS PERIOD     16
 UBDSV06 SAVING              RCH IN MODEL TEST_TRANS       PACKAGE TEST_TRANS      CONNECTED TO MODEL TEST_TRANS       PACKAGE RCHA             ON UNIT   1018 AT TIME STEP     10, STRESS PERIOD     16
 UBDSV06 SAVING              CHD IN MODEL TEST_TRANS       PACKAGE TEST_TRANS      CONNECTED TO MODEL TEST_TRANS       PACKAGE CHD              ON UNIT   1018 AT TIME STEP     10, STRESS PERIOD     16
1
  HEAD IN LAYER   1 AT END OF TIME STEP  10 IN STRESS PERIOD   16
  ---------------------------------------------------------------------------

                1               2               3               4               5               6               7               8               9              10
               11              12              13              14              15              16              17              18              19              20
               21              22              23              24              25              26              27              28              29              30
 ................................................................................................................................................................
   1      28.0657         28.0600         28.0487         28.0316         28.0088         27.9801         27.9455         27.9049         27.8581         27.8050    
          27.7453         27.6789         27.6055         27.5247         27.4363         27.3399         27.2349         27.1207         26.9967         26.8620    
          26.7155         26.5559         26.3816         26.1901         25.9785         25.7420         25.4739         25.1622         24.7834         24.2710    
   2      28.0657         28.0600         28.0487         28.0316         28.0088         27.9801         27.9455         27.9049         27.8581         27.8050    
          27.7453         27.6789         27.6055         27.5247         27.4363         27.3399         27.2349         27.1207         26.9967         26.8620    
          26.7155         26.5559         26.3816         26.1901         25.9785         25.7420         25.4739         25.1622         24.7834         24.2710    
   3      28.0657         28.0600         28.0487         28.0316         28.0088         27.9801         27.9455         27.9049         27.8581         27.8050    
          27.7453         27.6789         27.6055         27.5247         27.4363         27.3399         27.2349         27.1207         26.9967         26.8620    
          26.7155         26.5559         26.3816         26.1901         25.9785         25.7421         25.4739         25.1622         24.7834         24.2710    
   4      28.0657         28.0600         28.0487         28.0316         28.0088         27.9801         27.9455         27.9049         27.8581         27.8050    
          27.7453         27.6789         27.6055         27.5247         27.4363         27.3399         27.2349         27.1207         26.9967         26.8620    
          26.7155         26.5559         26.3816         26.1901         25.9785         25.7421         25.4739         25.1622         24.7834         24.2710    
   5      28.0657         28.0600         28.0487         28.0316         28.0088         27.9801         27.9455         27.9049         27.8581         27.8050    
          27.7453         27.6789         27.6055         27.5247         27.4363         27.3399         27.2349         27.1207         26.9967         26.8620    
          26.7155         26.5559         26.3816         26.1901         25.9785         25.7421         25.4739         25.1622         24.7834         24.2710    
   6      28.0657         28.0600         28.0487         28.0316         28.0088         27.9801         27.9455         27.9049         27.8581         27.8050    
          27.7453         27.6789         27.6055         27.5247         27.4363         27.3399         27.2349         27.1207         26.9967         26.8620    
          26.7155         26.5559         26.3816         26.1901         25.9785         25.7421         25.4739         25.1622         24.7834         24.2710    
   7      28.0657         28.0600         28.0487         28.0316         28.0088         27.9801         27.9455         27.9049         27.8581         27.8050    
          27.7453         27.6789         27.6055         27.5247         27.4363         27.3399         27.2349         27.1207         26.9967         26.8620    
          26.7155         26.5559         26.3816         26.1901         25.9785         25.7421         25.4739         25.1622         24.7834         24.2710    
   8      28.0657         28.0600         28.0487         28.0316         28.0088         27.9801         27.9455         27.9049         27.8581         27.8050    
          27.7453         27.6789         27.6055         27.5247         27.4363         27.3399         27.2349         27.1207         26.9967         26.8620    
          26.7155         26.5559         26.3816         26.1901         25.9785         25.7421         25.4739         25.1622         24.7834         24.2710    
   9      28.0657         28.0600         28.0487         28.0316         28.0088         27.9801         27.9455         27.9049         27.8581         27.8050    
          27.7453         27.6789         27.6055         27.5247         27.4363         27.3399         27.2349         27.1207         26.9967         26.8620    
          26.7155         26.5559         26.3816         26.1901         25.9785         25.7421         25.4739         25.1622         24.7834         24.2710    
  10      28.0657         28.0600         28.0487         28.0316         28.0088         27.9801         27.9455         27.9049         27.8581         27.8050    
          27.7453         27.6789         27.6055         27.5247         27.4363         27.3399         27.2349         27.1207         26.9967         26.8620    
          26.7155         26.5559         26.3816         26.1901         25.9785         25.7421         25.4739         25.1622         24.7834         24.2710    
  11      28.0657         28.0600         28.0487         28.0316         28.0088         27.9801         27.9455         27.9049         27.8581         27.8050    
          27.7453         27.6789         27.6055         27.5247         27.4363         27.3399         27.2349         27.1207         26.9967         26.8620    
          26.7155         26.5559         26.3816         26.1901         25.9785         25.7421         25.4739         25.1622         24.7834         24.2710    
  12      28.0657         28.0600         28.0487         28.0316         28.0088         27.9801         27.9455         27.9049         27.8581         27.8050    
          27.7453         27.6789         27.6055         27.5247         27.4363         27.3399         27.2349         27.1207         26.9967         26.8620    
          26.7155         26.5559         26.3816         26.1901         25.9785         25.7421         25.4739         25.1622         24.7834         24.2710    
  13      28.0657         28.0600         28.0487         28.0316         28.0088         27.9801         27.9455         27.9049         27.8581         27.8050    
          27.7453         27.6789         27.6055         27.5247         27.4363         27.3399         27.2349         27.1207         26.9967         26.8620    
          26.7155         26.5559         26.3816         26.1901         25.9785         25.7421         25.4739         25.1622         24.7834         24.2710    
  14      28.0657         28.0600         28.0487         28.0316         28.0088         27.9801         27.9455         27.9049         27.8581         27.8050    
          27.7453         27.6789         27.6055         27.5247         27.4363         27.3399         27.2349         27.1207         26.9967         26.8620    
          26.7155         26.5559         26.3816         26.1901         25.9785         25.7421         25.4739         25.1622         24.7834         24.2710    
  15      28.0657         28.0600         28.0487         28.0316         28.0088         27.9801         27.9455         27.9049         27.8581         27.8050    
          27.7453         27.6789         27.6055         27.5247         27.4363         27.3399         27.2349         27.1207         26.9967         26.8620    
          26.7155         26.5559         26.3816         26.1901         25.9785         25.7421         25.4739         25.1622         24.7834         24.2710    
  16      28.0657         28.0600         28.0487         28.0316         28.0088         27.9801         27.9455         27.9049         27.8581         27.8050    
          27.7453         27.6789         27.6055         27.5247         27.4363         27.3399         27.2349         27.1207         26.9967         26.8620    
          26.7155         26.5559         26.3816         26.1901         25.9785         25.7421         25.4739         25.1622         24.7834         24.2710    
  17      28.0657         28.0600         28.0487         28.0316         28.0088         27.9801         27.9455         27.9049         27.8581         27.8050    
          27.7453         27.6789         27.6055         27.5247         27.4363         27.3399         27.2349         27.1207         26.9967         26.8620    
          26.7155         26.5559         26.3816         26.1901         25.9785         25.7421         25.4739         25.1622         24.7834         24.2710    
  18      28.0657         28.0600         28.0487         28.0316         28.0088         27.9801         27.9455         27.9049         27.8581         27.8050    
          27.7453         27.6789         27.6055         27.5247         27.4363         27.3399         27.2349         27.1207         26.9967         26.8620    
          26.7155         26.5559         26.3816         26.1901         25.9785         25.7421         25.4739         25.1622         24.7834         24.2710    
  19      28.0657         28.0600         28.0487         28.0316         28.0088         27.9801         27.9455         27.9049         27.8581         27.8050    
          27.7453         27.6789         27.6055         27.5247         27.4363         27.3399         27.2349         27.1207         26.9967         26.8620    
          26.7155         26.5559         26.3816         26.1901         25.9785         25.7421         25.4739         25.1622         24.7834         24.2710    
  20      28.0657         28.0600         28.0487         28.0316         28.0088         27.9801         27.9455         27.9049         27.8581         27.8050    
          27.7453         27.6789         27.6055         27.5247         27.4363         27.3399         27.2349         27.1207         26.9967         26.8620    
          26.7155         26.5559         26.3816         26.1901         25.9785         25.7421         25.4739         25.1622         24.7834         24.2710    
  21      28.0657         28.0600         28.0487         28.0316         28.0088         27.9801         27.9455         27.9049         27.8581         27.8050    
          27.7453         27.6789         27.6055         27.5247         27.4363         27.3399         27.2349         27.1207         26.9967         26.8620    
          26.7155         26.5559         26.3816         26.1901         25.9785         25.7421         25.4739         25.1622         24.7834         24.2710    
  22      28.0657         28.0600         28.0487         28.0316         28.0088         27.9801         27.9455         27.9049         27.8581         27.8050    
          27.7453         27.6789         27.6055         27.5247         27.4363         27.3399         27.2349         27.1207         26.9967         26.8620    
          26.7155         26.5559         26.3816         26.1901         25.9785         25.7421         25.4739         25.1622         24.7834         24.2710    
  23      28.0657         28.0600         28.0487         28.0316         28.0088         27.9801         27.9455         27.9049         27.8581         27.8050    
          27.7453         27.6789         27.6055         27.5247         27.4363         27.3399         27.2349         27.1207         26.9967         26.8620    
          26.7155         26.5559         26.3816         26.1901         25.9785         25.7421         25.4739         25.1622         24.7834         24.2710    
  24      28.0657         28.0600         28.0487         28.0316         28.0088         27.9801         27.9455         27.9049         27.8581         27.8050    
          27.7453         27.6789         27.6055         27.5247         27.4363         27.3399         27.2349         27.1207         26.9967         26.8620    
          26.7155         26.5559         26.3816         26.1901         25.9785         25.7421         25.4739         25.1622         24.7834         24.2710    
  25      28.0657         28.0600         28.0487         28.0316         28.0088         27.9801         27.9455         27.9049         27.8581         27.8050    
          27.7453         27.6789         27.6055         27.5247         27.4363         27.3399         27.2349         27.1207         26.9967         26.8620    
          26.7155         26.5559         26.3816         26.1901         25.9785         25.7421         25.4739         25.1622         24.7834         24.2710    
  26      28.0657         28.0600         28.0487         28.0316         28.0088         27.9801         27.9455         27.9049         27.8581         27.8050    
          27.7453         27.6789         27.6055         27.5247         27.4363         27.3399         27.2349         27.1207         26.9967         26.8620    
          26.7155         26.5559         26.3816         26.1901         25.9785         25.7421         25.4739         25.1622         24.7834         24.2710    
  27      28.0657         28.0600         28.0487         28.0316         28.0088         27.9801         27.9455         27.9049         27.8581         27.8050    
          27.7453         27.6789         27.6055         27.5247         27.4363         27.3399         27.2349         27.1207         26.9967         26.8620    
          26.7155         26.5559         26.3816         26.1901         25.9785         25.7421         25.4739         25.1622         24.7834         24.2710    
  28      28.0657         28.0600         28.0487         28.0316         28.0088         27.9801         27.9455         27.9049         27.8581         27.8050    
          27.7453         27.6789         27.6055         27.5247         27.4363         27.3399         27.2349         27.1207         26.9967         26.8620    
          26.7155         26.5559         26.3816         26.1901         25.9785         25.7421         25.4739         25.1622         24.7834         24.2710    
  29      28.0657         28.0600         28.0487         28.0316         28.0088         27.9801         27.9455         27.9049         27.8581         27.8050    
          27.7453         27.6789         27.6055         27.5247         27.4363         27.3399         27.2349         27.1207         26.9967         26.8620    
          26.7155         26.5559         26.3816         26.1901         25.9785         25.7421         25.4739         25.1622         24.7834         24.2710    
  30      28.0657         28.0600         28.0487         28.0316         28.0088         27.9801         27.9455         27.9049         27.8581         27.8050    
          27.7453         27.6789         27.6055         27.5247         27.4363         27.3399         27.2349         27.1207         26.9967         26.8620    
          26.7155         26.5559         26.3816         26.1901         25.9785         25.7421         25.4739         25.1622         24.7834         24.2710    

 HEAD WILL BE SAVED ON UNIT 1019 AT END OF TIME STEP   10, STRESS PERIOD   16


  VOLUME BUDGET FOR ENTIRE MODEL AT END OF TIME STEP   10, STRESS PERIOD  16
  ---------------------------------------------------------------------------------------------------

     CUMULATIVE VOLUME      L**3       RATES FOR THIS TIME STEP      L**3/T          PACKAGE NAME    
     ------------------                 ------------------------                     ----------------

           IN:                                      IN:
           ---                                      ---
              STO-SS =          24.6223                STO-SS =       8.6213E-02     STORAGE         
              STO-SY =       15753.7417                STO-SY =          54.0614     STORAGE         
                 RCH =       79253.4522                   RCH =         143.0141     RCHA            
                 CHD =         597.9608                   CHD =           0.0000     CHD             

            TOTAL IN =       95629.7769              TOTAL IN =         197.1617

          OUT:                                     OUT:
          ----                                     ----
              STO-SS =          18.0489                STO-SS =           0.0000     STORAGE         
              STO-SY =       11667.2733                STO-SY =           0.0000     STORAGE         
                 RCH =           0.0000                   RCH =           0.0000     RCHA            
                 CHD =       83943.9906                   CHD =         197.1566     CHD             

           TOTAL OUT =       95629.3128             TOTAL OUT =         197.1566

            IN - OUT =           0.4641              IN - OUT =       5.0805E-03

 PERCENT DISCREPANCY =           0.00     PERCENT DISCREPANCY =           0.00




         TIME SUMMARY AT END OF TIME STEP   10 IN STRESS PERIOD   16
                    SECONDS     MINUTES      HOURS       DAYS        YEARS
                    -----------------------------------------------------------
   TIME STEP LENGTH 2.59200E+05  4320.0      72.000      3.0000     8.21355E-03
 STRESS PERIOD TIME 2.59200E+06  43200.      720.00      30.000     8.21355E-02
         TOTAL TIME 3.89664E+07 6.49440E+05  10824.      451.00      1.2348    

 OUTPUT CONTROL FOR STRESS PERIOD 17 IS REPEATED USING SETTINGS FROM A PREVIOUS STRESS PERIOD.


 STRESS PERIOD 17 IS TRANSIENT


                 RECHARGE =  0.1232880E-02
 UBDSV1 SAVING           STO-SS ON UNIT   1018 AT TIME STEP      1, STRESS PERIOD     17
 UBDSV1 SAVING           STO-SY ON UNIT   1018 AT TIME STEP      1, STRESS PERIOD     17
 UBDSV1 SAVING     FLOW-JA-FACE ON UNIT   1018 AT TIME STEP      1, STRESS PERIOD     17
 UBDSV06 SAVING              RCH IN MODEL TEST_TRANS       PACKAGE TEST_TRANS      CONNECTED TO MODEL TEST_TRANS       PACKAGE RCHA             ON UNIT   1018 AT TIME STEP      1, STRESS PERIOD     17
 UBDSV06 SAVING              CHD IN MODEL TEST_TRANS       PACKAGE TEST_TRANS      CONNECTED TO MODEL TEST_TRANS       PACKAGE CHD              ON UNIT   1018 AT TIME STEP      1, STRESS PERIOD     17
1
  HEAD IN LAYER   1 AT END OF TIME STEP   1 IN STRESS PERIOD   17
  ---------------------------------------------------------------------------

                1               2               3               4               5               6               7               8               9              10
               11              12              13              14              15              16              17              18              19              20
               21              22              23              24              25              26              27              28              29              30
 ................................................................................................................................................................
   1      28.0473         28.0416         28.0303         28.0133         27.9905         27.9619         27.9275         27.8869         27.8403         27.7873    
          27.7278         27.6616         27.5885         27.5081         27.4200         27.3240         27.2195         27.1060         26.9829         26.8493    
          26.7044         26.5472         26.3764         26.1908         25.9890         25.7703         25.5356         25.2914         25.0598         24.9067    
   2      28.0473         28.0416         28.0303         28.0133         27.9905         27.9619         27.9275         27.8869         27.8403         27.7873    
          27.7278         27.6616         27.5885         27.5081         27.4200         27.3240         27.2195         27.1060         26.9829         26.8493    
          26.7044         26.5472         26.3764         26.1908         25.9890         25.7703         25.5356         25.2914         25.0598         24.9067    
   3      28.0473         28.0416         28.0303         28.0133         27.9905         27.9619         27.9275         27.8869         27.8403         27.7873    
          27.7278         27.6616         27.5885         27.5081         27.4200         27.3240         27.2195         27.1060         26.9829         26.8493    
          26.7044         26.5472         26.3764         26.1908         25.9890         25.7703         25.5356         25.2914         25.0598         24.9067    
   4      28.0473         28.0416         28.0303         28.0133         27.9905         27.9619         27.9275         27.8869         27.8403         27.7873    
          27.7278         27.6616         27.5885         27.5081         27.4200         27.3240         27.2195         27.1060         26.9829         26.8493    
          26.7044         26.5472         26.3764         26.1908         25.9890         25.7703         25.5356         25.2914         25.0598         24.9067    
   5      28.0473         28.0416         28.0303         28.0133         27.9905         27.9619         27.9275         27.8869         27.8403         27.7873    
          27.7278         27.6616         27.5885         27.5081         27.4200         27.3240         27.2195         27.1060         26.9829         26.8493    
          26.7044         26.5472         26.3764         26.1908         25.9890         25.7703         25.5356         25.2914         25.0598         24.9067    
   6      28.0473         28.0416         28.0303         28.0133         27.9905         27.9619         27.9275         27.8869         27.8403         27.7873    
          27.7278         27.6616         27.5885         27.5081         27.4200         27.3240         27.2195         27.1060         26.9829         26.8493    
          26.7044         26.5472         26.3764         26.1908         25.9890         25.7703         25.5356         25.2914         25.0598         24.9067    
   7      28.0473         28.0416         28.0303         28.0133         27.9905         27.9619         27.9275         27.8869         27.8403         27.7873    
          27.7278         27.6616         27.5885         27.5081         27.4200         27.3240         27.2195         27.1060         26.9829         26.8493    
          26.7044         26.5472         26.3764         26.1908         25.9890         25.7703         25.5356         25.2914         25.0598         24.9067    
   8      28.0473         28.0416         28.0303         28.0133         27.9905         27.9619         27.9275         27.8869         27.8403         27.7873    
          27.7278         27.6616         27.5885         27.5081         27.4200         27.3240         27.2195         27.1060         26.9829         26.8493    
          26.7044         26.5472         26.3764         26.1908         25.9890         25.7703         25.5356         25.2914         25.0598         24.9067    
   9      28.0473         28.0416         28.0303         28.0133         27.9905         27.9619         27.9275         27.8869         27.8403         27.7873    
          27.7278         27.6616         27.5885         27.5081         27.4200         27.3240         27.2195         27.1060         26.9829         26.8493    
          26.7044         26.5472         26.3764         26.1908         25.9890         25.7703         25.5356         25.2914         25.0598         24.9067    
  10      28.0473         28.0416         28.0303         28.0133         27.9905         27.9619         27.9275         27.8869         27.8403         27.7873    
          27.7278         27.6616         27.5885         27.5081         27.4200         27.3240         27.2195         27.1060         26.9829         26.8493    
          26.7044         26.5472         26.3764         26.1908         25.9890         25.7703         25.5356         25.2914         25.0598         24.9067    
  11      28.0473         28.0416         28.0303         28.0133         27.9905         27.9619         27.9275         27.8869         27.8403         27.7873    
          27.7278         27.6616         27.5885         27.5081         27.4200         27.3240         27.2195         27.1060         26.9829         26.8493    
          26.7044         26.5472         26.3764         26.1908         25.9890         25.7703         25.5356         25.2914         25.0598         24.9067    
  12      28.0473         28.0416         28.0303         28.0133         27.9905         27.9619         27.9275         27.8869         27.8403         27.7873    
          27.7278         27.6616         27.5885         27.5081         27.4200         27.3240         27.2195         27.1060         26.9829         26.8493    
          26.7044         26.5472         26.3764         26.1908         25.9890         25.7703         25.5356         25.2914         25.0598         24.9067    
  13      28.0473         28.0416         28.0303         28.0133         27.9905         27.9619         27.9275         27.8869         27.8403         27.7873    
          27.7278         27.6616         27.5885         27.5081         27.4200         27.3240         27.2195         27.1060         26.9829         26.8493    
          26.7044         26.5472         26.3764         26.1908         25.9890         25.7703         25.5356         25.2914         25.0598         24.9067    
  14      28.0473         28.0416         28.0303         28.0133         27.9905         27.9619         27.9275         27.8869         27.8403         27.7873    
          27.7278         27.6616         27.5885         27.5081         27.4200         27.3240         27.2195         27.1060         26.9829         26.8493    
          26.7044         26.5472         26.3764         26.1908         25.9890         25.7703         25.5356         25.2914         25.0598         24.9067    
  15      28.0473         28.0416         28.0303         28.0133         27.9905         27.9619         27.9275         27.8869         27.8403         27.7873    
          27.7278         27.6616         27.5885         27.5081         27.4200         27.3240         27.2195         27.1060         26.9829         26.8493    
          26.7044         26.5472         26.3764         26.1908         25.9890         25.7703         25.5356         25.2914         25.0598         24.9067    
  16      28.0473         28.0416         28.0303         28.0133         27.9905         27.9619         27.9275         27.8869         27.8403         27.7873    
          27.7278         27.6616         27.5885         27.5081         27.4200         27.3240         27.2195         27.1060         26.9829         26.8493    
          26.7044         26.5472         26.3764         26.1908         25.9890         25.7703         25.5356         25.2914         25.0598         24.9067    
  17      28.0473         28.0416         28.0303         28.0133         27.9905         27.9619         27.9275         27.8869         27.8403         27.7873    
          27.7278         27.6616         27.5885         27.5081         27.4200         27.3240         27.2195         27.1060         26.9829         26.8493    
          26.7044         26.5472         26.3764         26.1908         25.9890         25.7703         25.5356         25.2914         25.0598         24.9067    
  18      28.0473         28.0416         28.0303         28.0133         27.9905         27.9619         27.9275         27.8869         27.8403         27.7873    
          27.7278         27.6616         27.5885         27.5081         27.4200         27.3240         27.2195         27.1060         26.9829         26.8493    
          26.7044         26.5472         26.3764         26.1908         25.9890         25.7703         25.5356         25.2914         25.0598         24.9067    
  19      28.0473         28.0416         28.0303         28.0133         27.9905         27.9619         27.9275         27.8869         27.8403         27.7873    
          27.7278         27.6616         27.5885         27.5081         27.4200         27.3240         27.2195         27.1060         26.9829         26.8493    
          26.7044         26.5472         26.3764         26.1908         25.9890         25.7703         25.5356         25.2914         25.0598         24.9067    
  20      28.0473         28.0416         28.0303         28.0133         27.9905         27.9619         27.9275         27.8869         27.8403         27.7873    
          27.7278         27.6616         27.5885         27.5081         27.4200         27.3240         27.2195         27.1060         26.9829         26.8493    
          26.7044         26.5472         26.3764         26.1908         25.9890         25.7703         25.5356         25.2914         25.0598         24.9067    
  21      28.0473         28.0416         28.0303         28.0133         27.9905         27.9619         27.9275         27.8869         27.8403         27.7873    
          27.7278         27.6616         27.5885         27.5081         27.4200         27.3240         27.2195         27.1060         26.9829         26.8493    
          26.7044         26.5472         26.3764         26.1908         25.9890         25.7703         25.5356         25.2914         25.0598         24.9067    
  22      28.0473         28.0416         28.0303         28.0133         27.9905         27.9619         27.9275         27.8869         27.8403         27.7873    
          27.7278         27.6616         27.5885         27.5081         27.4200         27.3240         27.2195         27.1060         26.9829         26.8493    
          26.7044         26.5472         26.3764         26.1908         25.9890         25.7703         25.5356         25.2914         25.0598         24.9067    
  23      28.0473         28.0416         28.0303         28.0133         27.9905         27.9619         27.9275         27.8869         27.8403         27.7873    
          27.7278         27.6616         27.5885         27.5081         27.4200         27.3240         27.2195         27.1060         26.9829         26.8493    
          26.7044         26.5472         26.3764         26.1908         25.9890         25.7703         25.5356         25.2914         25.0598         24.9067    
  24      28.0473         28.0416         28.0303         28.0133         27.9905         27.9619         27.9275         27.8869         27.8403         27.7873    
          27.7278         27.6616         27.5885         27.5081         27.4200         27.3240         27.2195         27.1060         26.9829         26.8493    
          26.7044         26.5472         26.3764         26.1908         25.9890         25.7703         25.5356         25.2914         25.0598         24.9067    
  25      28.0473         28.0416         28.0303         28.0133         27.9905         27.9619         27.9275         27.8869         27.8403         27.7873    
          27.7278         27.6616         27.5885         27.5081         27.4200         27.3240         27.2195         27.1060         26.9829         26.8493    
          26.7044         26.5472         26.3764         26.1908         25.9890         25.7703         25.5356         25.2914         25.0598         24.9067    
  26      28.0473         28.0416         28.0303         28.0133         27.9905         27.9619         27.9275         27.8869         27.8403         27.7873    
          27.7278         27.6616         27.5885         27.5081         27.4200         27.3240         27.2195         27.1060         26.9829         26.8493    
          26.7044         26.5472         26.3764         26.1908         25.9890         25.7703         25.5356         25.2914         25.0598         24.9067    
  27      28.0473         28.0416         28.0303         28.0133         27.9905         27.9619         27.9275         27.8869         27.8403         27.7873    
          27.7278         27.6616         27.5885         27.5081         27.4200         27.3240         27.2195         27.1060         26.9829         26.8493    
          26.7044         26.5472         26.3764         26.1908         25.9890         25.7703         25.5356         25.2914         25.0598         24.9067    
  28      28.0473         28.0416         28.0303         28.0133         27.9905         27.9619         27.9275         27.8869         27.8403         27.7873    
          27.7278         27.6616         27.5885         27.5081         27.4200         27.3240         27.2195         27.1060         26.9829         26.8493    
          26.7044         26.5472         26.3764         26.1908         25.9890         25.7703         25.5356         25.2914         25.0598         24.9067    
  29      28.0473         28.0416         28.0303         28.0133         27.9905         27.9619         27.9275         27.8869         27.8403         27.7873    
          27.7278         27.6616         27.5885         27.5081         27.4200         27.3240         27.2195         27.1060         26.9829         26.8493    
          26.7044         26.5472         26.3764         26.1908         25.9890         25.7703         25.5356         25.2914         25.0598         24.9067    
  30      28.0473         28.0416         28.0303         28.0133         27.9905         27.9619         27.9275         27.8869         27.8403         27.7873    
          27.7278         27.6616         27.5885         27.5081         27.4200         27.3240         27.2195         27.1060         26.9829         26.8493    
          26.7044         26.5472         26.3764         26.1908         25.9890         25.7703         25.5356         25.2914         25.0598         24.9067    

 HEAD WILL BE SAVED ON UNIT 1019 AT END OF TIME STEP    1, STRESS PERIOD   17



         TIME SUMMARY AT END OF TIME STEP    1 IN STRESS PERIOD   17
                    SECONDS     MINUTES      HOURS       DAYS        YEARS
                    -----------------------------------------------------------
   TIME STEP LENGTH 2.59200E+05  4320.0      72.000      3.0000     8.21355E-03
 STRESS PERIOD TIME 2.59200E+05  4320.0      72.000      3.0000     8.21355E-03
         TOTAL TIME 3.92256E+07 6.53760E+05  10896.      454.00      1.2430    
 UBDSV1 SAVING           STO-SS ON UNIT   1018 AT TIME STEP      2, STRESS PERIOD     17
 UBDSV1 SAVING           STO-SY ON UNIT   1018 AT TIME STEP      2, STRESS PERIOD     17
 UBDSV1 SAVING     FLOW-JA-FACE ON UNIT   1018 AT TIME STEP      2, STRESS PERIOD     17
 UBDSV06 SAVING              RCH IN MODEL TEST_TRANS       PACKAGE TEST_TRANS      CONNECTED TO MODEL TEST_TRANS       PACKAGE RCHA             ON UNIT   1018 AT TIME STEP      2, STRESS PERIOD     17
 UBDSV06 SAVING              CHD IN MODEL TEST_TRANS       PACKAGE TEST_TRANS      CONNECTED TO MODEL TEST_TRANS       PACKAGE CHD              ON UNIT   1018 AT TIME STEP      2, STRESS PERIOD     17

 HEAD WILL BE SAVED ON UNIT 1019 AT END OF TIME STEP    2, STRESS PERIOD   17
 UBDSV1 SAVING           STO-SS ON UNIT   1018 AT TIME STEP      3, STRESS PERIOD     17
 UBDSV1 SAVING           STO-SY ON UNIT   1018 AT TIME STEP      3, STRESS PERIOD     17
 UBDSV1 SAVING     FLOW-JA-FACE ON UNIT   1018 AT TIME STEP      3, STRESS PERIOD     17
 UBDSV06 SAVING              RCH IN MODEL TEST_TRANS       PACKAGE TEST_TRANS      CONNECTED TO MODEL TEST_TRANS       PACKAGE RCHA             ON UNIT   1018 AT TIME STEP      3, STRESS PERIOD     17
 UBDSV06 SAVING              CHD IN MODEL TEST_TRANS       PACKAGE TEST_TRANS      CONNECTED TO MODEL TEST_TRANS       PACKAGE CHD              ON UNIT   1018 AT TIME STEP      3, STRESS PERIOD     17

 HEAD WILL BE SAVED ON UNIT 1019 AT END OF TIME STEP    3, STRESS PERIOD   17
 UBDSV1 SAVING           STO-SS ON UNIT   1018 AT TIME STEP      4, STRESS PERIOD     17
 UBDSV1 SAVING           STO-SY ON UNIT   1018 AT TIME STEP      4, STRESS PERIOD     17
 UBDSV1 SAVING     FLOW-JA-FACE ON UNIT   1018 AT TIME STEP      4, STRESS PERIOD     17
 UBDSV06 SAVING              RCH IN MODEL TEST_TRANS       PACKAGE TEST_TRANS      CONNECTED TO MODEL TEST_TRANS       PACKAGE RCHA             ON UNIT   1018 AT TIME STEP      4, STRESS PERIOD     17
 UBDSV06 SAVING              CHD IN MODEL TEST_TRANS       PACKAGE TEST_TRANS      CONNECTED TO MODEL TEST_TRANS       PACKAGE CHD              ON UNIT   1018 AT TIME STEP      4, STRESS PERIOD     17

 HEAD WILL BE SAVED ON UNIT 1019 AT END OF TIME STEP    4, STRESS PERIOD   17
 UBDSV1 SAVING           STO-SS ON UNIT   1018 AT TIME STEP      5, STRESS PERIOD     17
 UBDSV1 SAVING           STO-SY ON UNIT   1018 AT TIME STEP      5, STRESS PERIOD     17
 UBDSV1 SAVING     FLOW-JA-FACE ON UNIT   1018 AT TIME STEP      5, STRESS PERIOD     17
 UBDSV06 SAVING              RCH IN MODEL TEST_TRANS       PACKAGE TEST_TRANS      CONNECTED TO MODEL TEST_TRANS       PACKAGE RCHA             ON UNIT   1018 AT TIME STEP      5, STRESS PERIOD     17
 UBDSV06 SAVING              CHD IN MODEL TEST_TRANS       PACKAGE TEST_TRANS      CONNECTED TO MODEL TEST_TRANS       PACKAGE CHD              ON UNIT   1018 AT TIME STEP      5, STRESS PERIOD     17

 HEAD WILL BE SAVED ON UNIT 1019 AT END OF TIME STEP    5, STRESS PERIOD   17
 UBDSV1 SAVING           STO-SS ON UNIT   1018 AT TIME STEP      6, STRESS PERIOD     17
 UBDSV1 SAVING           STO-SY ON UNIT   1018 AT TIME STEP      6, STRESS PERIOD     17
 UBDSV1 SAVING     FLOW-JA-FACE ON UNIT   1018 AT TIME STEP      6, STRESS PERIOD     17
 UBDSV06 SAVING              RCH IN MODEL TEST_TRANS       PACKAGE TEST_TRANS      CONNECTED TO MODEL TEST_TRANS       PACKAGE RCHA             ON UNIT   1018 AT TIME STEP      6, STRESS PERIOD     17
 UBDSV06 SAVING              CHD IN MODEL TEST_TRANS       PACKAGE TEST_TRANS      CONNECTED TO MODEL TEST_TRANS       PACKAGE CHD              ON UNIT   1018 AT TIME STEP      6, STRESS PERIOD     17

 HEAD WILL BE SAVED ON UNIT 1019 AT END OF TIME STEP    6, STRESS PERIOD   17
 UBDSV1 SAVING           STO-SS ON UNIT   1018 AT TIME STEP      7, STRESS PERIOD     17
 UBDSV1 SAVING           STO-SY ON UNIT   1018 AT TIME STEP      7, STRESS PERIOD     17
 UBDSV1 SAVING     FLOW-JA-FACE ON UNIT   1018 AT TIME STEP      7, STRESS PERIOD     17
 UBDSV06 SAVING              RCH IN MODEL TEST_TRANS       PACKAGE TEST_TRANS      CONNECTED TO MODEL TEST_TRANS       PACKAGE RCHA             ON UNIT   1018 AT TIME STEP      7, STRESS PERIOD     17
 UBDSV06 SAVING              CHD IN MODEL TEST_TRANS       PACKAGE TEST_TRANS      CONNECTED TO MODEL TEST_TRANS       PACKAGE CHD              ON UNIT   1018 AT TIME STEP      7, STRESS PERIOD     17

 HEAD WILL BE SAVED ON UNIT 1019 AT END OF TIME STEP    7, STRESS PERIOD   17
 UBDSV1 SAVING           STO-SS ON UNIT   1018 AT TIME STEP      8, STRESS PERIOD     17
 UBDSV1 SAVING           STO-SY ON UNIT   1018 AT TIME STEP      8, STRESS PERIOD     17
 UBDSV1 SAVING     FLOW-JA-FACE ON UNIT   1018 AT TIME STEP      8, STRESS PERIOD     17
 UBDSV06 SAVING              RCH IN MODEL TEST_TRANS       PACKAGE TEST_TRANS      CONNECTED TO MODEL TEST_TRANS       PACKAGE RCHA             ON UNIT   1018 AT TIME STEP      8, STRESS PERIOD     17
 UBDSV06 SAVING              CHD IN MODEL TEST_TRANS       PACKAGE TEST_TRANS      CONNECTED TO MODEL TEST_TRANS       PACKAGE CHD              ON UNIT   1018 AT TIME STEP      8, STRESS PERIOD     17

 HEAD WILL BE SAVED ON UNIT 1019 AT END OF TIME STEP    8, STRESS PERIOD   17
 UBDSV1 SAVING           STO-SS ON UNIT   1018 AT TIME STEP      9, STRESS PERIOD     17
 UBDSV1 SAVING           STO-SY ON UNIT   1018 AT TIME STEP      9, STRESS PERIOD     17
 UBDSV1 SAVING     FLOW-JA-FACE ON UNIT   1018 AT TIME STEP      9, STRESS PERIOD     17
 UBDSV06 SAVING              RCH IN MODEL TEST_TRANS       PACKAGE TEST_TRANS      CONNECTED TO MODEL TEST_TRANS       PACKAGE RCHA             ON UNIT   1018 AT TIME STEP      9, STRESS PERIOD     17
 UBDSV06 SAVING              CHD IN MODEL TEST_TRANS       PACKAGE TEST_TRANS      CONNECTED TO MODEL TEST_TRANS       PACKAGE CHD              ON UNIT   1018 AT TIME STEP      9, STRESS PERIOD     17

 HEAD WILL BE SAVED ON UNIT 1019 AT END OF TIME STEP    9, STRESS PERIOD   17
 UBDSV1 SAVING           STO-SS ON UNIT   1018 AT TIME STEP     10, STRESS PERIOD     17
 UBDSV1 SAVING           STO-SY ON UNIT   1018 AT TIME STEP     10, STRESS PERIOD     17
 UBDSV1 SAVING     FLOW-JA-FACE ON UNIT   1018 AT TIME STEP     10, STRESS PERIOD     17
 UBDSV06 SAVING              RCH IN MODEL TEST_TRANS       PACKAGE TEST_TRANS      CONNECTED TO MODEL TEST_TRANS       PACKAGE RCHA             ON UNIT   1018 AT TIME STEP     10, STRESS PERIOD     17
 UBDSV06 SAVING              CHD IN MODEL TEST_TRANS       PACKAGE TEST_TRANS      CONNECTED TO MODEL TEST_TRANS       PACKAGE CHD              ON UNIT   1018 AT TIME STEP     10, STRESS PERIOD     17
1
  HEAD IN LAYER   1 AT END OF TIME STEP  10 IN STRESS PERIOD   17
  ---------------------------------------------------------------------------

                1               2               3               4               5               6               7               8               9              10
               11              12              13              14              15              16              17              18              19              20
               21              22              23              24              25              26              27              28              29              30
 ................................................................................................................................................................
   1      27.8947         27.8893         27.8786         27.8624         27.8408         27.8137         27.7811         27.7429         27.6990         27.6494    
          27.5938         27.5322         27.4645         27.3905         27.3100         27.2227         27.1285         27.0269         26.9177         26.8004    
          26.6745         26.5393         26.3938         26.2371         26.0674         25.8829         25.6805         25.4558         25.2019         24.9067    
   2      27.8947         27.8893         27.8786         27.8624         27.8408         27.8137         27.7811         27.7429         27.6990         27.6494    
          27.5938         27.5322         27.4645         27.3905         27.3100         27.2227         27.1285         27.0269         26.9177         26.8004    
          26.6745         26.5393         26.3938         26.2371         26.0674         25.8829         25.6805         25.4558         25.2019         24.9067    
   3      27.8947         27.8893         27.8786         27.8624         27.8408         27.8137         27.7811         27.7429         27.6990         27.6494    
          27.5938         27.5322         27.4645         27.3905         27.3100         27.2227         27.1285         27.0269         26.9177         26.8004    
          26.6745         26.5393         26.3938         26.2371         26.0674         25.8829         25.6805         25.4558         25.2019         24.9067    
   4      27.8947         27.8893         27.8786         27.8624         27.8408         27.8137         27.7811         27.7429         27.6990         27.6494    
          27.5938         27.5322         27.4645         27.3905         27.3100         27.2227         27.1285         27.0269         26.9177         26.8005    
          26.6745         26.5393         26.3938         26.2371         26.0674         25.8829         25.6805         25.4558         25.2019         24.9067    
   5      27.8947         27.8893         27.8786         27.8624         27.8408         27.8137         27.7811         27.7429         27.6990         27.6494    
          27.5938         27.5322         27.4645         27.3905         27.3100         27.2227         27.1285         27.0269         26.9177         26.8005    
          26.6745         26.5393         26.3938         26.2371         26.0674         25.8829         25.6805         25.4558         25.2019         24.9067    
   6      27.8947         27.8893         27.8786         27.8624         27.8408         27.8137         27.7811         27.7429         27.6990         27.6494    
          27.5938         27.5322         27.4645         27.3905         27.3100         27.2227         27.1285         27.0269         26.9177         26.8005    
          26.6745         26.5393         26.3938         26.2371         26.0674         25.8829         25.6805         25.4558         25.2019         24.9067    
   7      27.8947         27.8893         27.8786         27.8624         27.8408         27.8137         27.7811         27.7429         27.6990         27.6494    
          27.5938         27.5322         27.4645         27.3905         27.3100         27.2227         27.1285         27.0269         26.9177         26.8005    
          26.6745         26.5393         26.3938         26.2371         26.0674         25.8829         25.6805         25.4558         25.2019         24.9067    
   8      27.8947         27.8893         27.8786         27.8624         27.8408         27.8137         27.7811         27.7429         27.6990         27.6494    
          27.5938         27.5322         27.4645         27.3905         27.3100         27.2227         27.1285         27.0269         26.9177         26.8005    
          26.6745         26.5393         26.3938         26.2371         26.0675         25.8829         25.6805         25.4558         25.2019         24.9067    
   9      27.8947         27.8893         27.8786         27.8624         27.8408         27.8137         27.7811         27.7429         27.6990         27.6494    
          27.5938         27.5322         27.4645         27.3905         27.3100         27.2227         27.1285         27.0269         26.9177         26.8005    
          26.6745         26.5393         26.3938         26.2371         26.0675         25.8829         25.6805         25.4558         25.2019         24.9067    
  10      27.8947         27.8893         27.8786         27.8624         27.8408         27.8137         27.7811         27.7429         27.6990         27.6494    
          27.5938         27.5322         27.4645         27.3905         27.3100         27.2227         27.1285         27.0269         26.9177         26.8005    
          26.6745         26.5393         26.3938         26.2371         26.0675         25.8829         25.6805         25.4558         25.2019         24.9067    
  11      27.8947         27.8893         27.8786         27.8624         27.8408         27.8137         27.7811         27.7429         27.6990         27.6494    
          27.5938         27.5322         27.4645         27.3905         27.3100         27.2227         27.1285         27.0269         26.9177         26.8005    
          26.6745         26.5393         26.3938         26.2371         26.0675         25.8829         25.6805         25.4558         25.2019         24.9067    
  12      27.8947         27.8893         27.8786         27.8624         27.8408         27.8137         27.7811         27.7429         27.6990         27.6494    
          27.5938         27.5322         27.4645         27.3905         27.3100         27.2227         27.1285         27.0269         26.9177         26.8005    
          26.6745         26.5393         26.3938         26.2371         26.0675         25.8829         25.6805         25.4558         25.2019         24.9067    
  13      27.8947         27.8893         27.8786         27.8624         27.8408         27.8137         27.7811         27.7429         27.6990         27.6494    
          27.5938         27.5322         27.4645         27.3905         27.3100         27.2227         27.1285         27.0269         26.9177         26.8005    
          26.6745         26.5393         26.3938         26.2371         26.0675         25.8829         25.6805         25.4558         25.2019         24.9067    
  14      27.8947         27.8893         27.8786         27.8624         27.8408         27.8137         27.7811         27.7429         27.6990         27.6494    
          27.5938         27.5322         27.4645         27.3905         27.3100         27.2227         27.1285         27.0269         26.9177         26.8005    
          26.6745         26.5393         26.3938         26.2371         26.0675         25.8829         25.6805         25.4558         25.2019         24.9067    
  15      27.8947         27.8893         27.8786         27.8624         27.8408         27.8137         27.7811         27.7429         27.6990         27.6494    
          27.5938         27.5322         27.4645         27.3905         27.3100         27.2227         27.1285         27.0269         26.9177         26.8005    
          26.6745         26.5393         26.3938         26.2371         26.0675         25.8829         25.6805         25.4558         25.2019         24.9067    
  16      27.8947         27.8893         27.8786         27.8624         27.8408         27.8137         27.7811         27.7429         27.6990         27.6494    
          27.5938         27.5322         27.4645         27.3905         27.3100         27.2227         27.1285         27.0269         26.9177         26.8005    
          26.6745         26.5393         26.3938         26.2371         26.0675         25.8829         25.6805         25.4558         25.2019         24.9067    
  17      27.8947         27.8893         27.8786         27.8624         27.8408         27.8137         27.7811         27.7429         27.6990         27.6494    
          27.5938         27.5322         27.4645         27.3905         27.3100         27.2227         27.1285         27.0269         26.9177         26.8005    
          26.6745         26.5393         26.3938         26.2371         26.0675         25.8829         25.6805         25.4558         25.2019         24.9067    
  18      27.8947         27.8893         27.8786         27.8624         27.8408         27.8137         27.7811         27.7429         27.6990         27.6494    
          27.5938         27.5322         27.4645         27.3905         27.3100         27.2227         27.1285         27.0269         26.9177         26.8005    
          26.6745         26.5393         26.3938         26.2371         26.0675         25.8829         25.6805         25.4558         25.2019         24.9067    
  19      27.8947         27.8893         27.8786         27.8624         27.8408         27.8137         27.7811         27.7429         27.6990         27.6494    
          27.5938         27.5322         27.4645         27.3905         27.3100         27.2227         27.1285         27.0269         26.9177         26.8005    
          26.6745         26.5393         26.3938         26.2371         26.0675         25.8829         25.6805         25.4558         25.2019         24.9067    
  20      27.8947         27.8893         27.8786         27.8624         27.8408         27.8137         27.7811         27.7429         27.6990         27.6494    
          27.5938         27.5322         27.4645         27.3905         27.3100         27.2227         27.1285         27.0269         26.9177         26.8005    
          26.6745         26.5393         26.3938         26.2371         26.0675         25.8829         25.6805         25.4558         25.2019         24.9067    
  21      27.8947         27.8893         27.8786         27.8624         27.8408         27.8137         27.7811         27.7429         27.6990         27.6494    
          27.5938         27.5322         27.4645         27.3905         27.3100         27.2227         27.1285         27.0269         26.9177         26.8005    
          26.6745         26.5393         26.3938         26.2371         26.0675         25.8829         25.6805         25.4558         25.2019         24.9067    
  22      27.8947         27.8893         27.8786         27.8624         27.8408         27.8137         27.7811         27.7429         27.6990         27.6494    
          27.5938         27.5322         27.4645         27.3905         27.3100         27.2227         27.1285         27.0269         26.9177         26.8005    
          26.6745         26.5393         26.3938         26.2371         26.0675         25.8829         25.6805         25.4558         25.2019         24.9067    
  23      27.8947         27.8893         27.8786         27.8624         27.8408         27.8137         27.7811         27.7429         27.6990         27.6494    
          27.5938         27.5322         27.4645         27.3905         27.3100         27.2227         27.1285         27.0269         26.9177         26.8005    
          26.6745         26.5393         26.3938         26.2371         26.0675         25.8829         25.6805         25.4558         25.2019         24.9067    
  24      27.8947         27.8893         27.8786         27.8624         27.8408         27.8137         27.7811         27.7429         27.6990         27.6494    
          27.5938         27.5322         27.4645         27.3905         27.3100         27.2227         27.1285         27.0269         26.9177         26.8005    
          26.6745         26.5393         26.3938         26.2371         26.0675         25.8829         25.6805         25.4558         25.2019         24.9067    
  25      27.8947         27.8893         27.8786         27.8624         27.8408         27.8137         27.7811         27.7429         27.6990         27.6494    
          27.5938         27.5322         27.4645         27.3905         27.3100         27.2227         27.1285         27.0269         26.9177         26.8005    
          26.6745         26.5393         26.3938         26.2371         26.0675         25.8829         25.6805         25.4558         25.2019         24.9067    
  26      27.8947         27.8893         27.8786         27.8624         27.8408         27.8137         27.7811         27.7429         27.6990         27.6494    
          27.5938         27.5322         27.4645         27.3905         27.3100         27.2227         27.1285         27.0269         26.9177         26.8005    
          26.6745         26.5393         26.3938         26.2371         26.0675         25.8829         25.6805         25.4558         25.2019         24.9067    
  27      27.8947         27.8893         27.8786         27.8624         27.8408         27.8137         27.7811         27.7429         27.6990         27.6494    
          27.5938         27.5322         27.4645         27.3905         27.3100         27.2227         27.1285         27.0269         26.9177         26.8005    
          26.6745         26.5393         26.3938         26.2371         26.0675         25.8829         25.6805         25.4558         25.2019         24.9067    
  28      27.8947         27.8893         27.8786         27.8624         27.8408         27.8137         27.7811         27.7429         27.6990         27.6494    
          27.5938         27.5322         27.4645         27.3905         27.3100         27.2227         27.1285         27.0269         26.9177         26.8005    
          26.6745         26.5393         26.3938         26.2371         26.0675         25.8829         25.6805         25.4558         25.2019         24.9067    
  29      27.8947         27.8893         27.8786         27.8624         27.8408         27.8137         27.7811         27.7429         27.6990         27.6494    
          27.5938         27.5322         27.4645         27.3905         27.3100         27.2227         27.1285         27.0269         26.9177         26.8005    
          26.6745         26.5393         26.3938         26.2371         26.0675         25.8829         25.6805         25.4558         25.2019         24.9067    
  30      27.8947         27.8893         27.8786         27.8624         27.8408         27.8137         27.7811         27.7429         27.6990         27.6494    
          27.5938         27.5322         27.4645         27.3905         27.3100         27.2227         27.1285         27.0269         26.9177         26.8005    
          26.6745         26.5393         26.3938         26.2371         26.0675         25.8829         25.6805         25.4558         25.2019         24.9067    

 HEAD WILL BE SAVED ON UNIT 1019 AT END OF TIME STEP   10, STRESS PERIOD   17


  VOLUME BUDGET FOR ENTIRE MODEL AT END OF TIME STEP   10, STRESS PERIOD  17
  ---------------------------------------------------------------------------------------------------

     CUMULATIVE VOLUME      L**3       RATES FOR THIS TIME STEP      L**3/T          PACKAGE NAME    
     ------------------                 ------------------------                     ----------------

           IN:                                      IN:
           ---                                      ---
              STO-SS =          27.4145                STO-SS =       7.9858E-02     STORAGE         
              STO-SY =       17482.8952                STO-SY =          49.6439     STORAGE         
                 RCH =       82471.2690                   RCH =         107.2606     RCHA            
                 CHD =         597.9608                   CHD =           0.0000     CHD             

            TOTAL IN =      100579.5395              TOTAL IN =         156.9843

          OUT:                                     OUT:
          ----                                     ----
              STO-SS =          19.0657                STO-SS =       8.4617E-04     STORAGE         
              STO-SY =       12398.1636                STO-SY =           0.6017     STORAGE         
                 RCH =           0.0000                   RCH =           0.0000     RCHA            
                 CHD =       88161.8053                   CHD =         156.3802     CHD             

           TOTAL OUT =      100579.0346             TOTAL OUT =         156.9827

            IN - OUT =           0.5049              IN - OUT =       1.6521E-03

 PERCENT DISCREPANCY =           0.00     PERCENT DISCREPANCY =           0.00




         TIME SUMMARY AT END OF TIME STEP   10 IN STRESS PERIOD   17
                    SECONDS     MINUTES      HOURS       DAYS        YEARS
                    -----------------------------------------------------------
   TIME STEP LENGTH 2.59200E+05  4320.0      72.000      3.0000     8.21355E-03
 STRESS PERIOD TIME 2.59200E+06  43200.      720.00      30.000     8.21355E-02
         TOTAL TIME 4.15584E+07 6.92640E+05  11544.      481.00      1.3169    

 OUTPUT CONTROL FOR STRESS PERIOD 18 IS REPEATED USING SETTINGS FROM A PREVIOUS STRESS PERIOD.


 STRESS PERIOD 18 IS TRANSIENT


                 RECHARGE =  0.8219178E-03
 UBDSV1 SAVING           STO-SS ON UNIT   1018 AT TIME STEP      1, STRESS PERIOD     18
 UBDSV1 SAVING           STO-SY ON UNIT   1018 AT TIME STEP      1, STRESS PERIOD     18
 UBDSV1 SAVING     FLOW-JA-FACE ON UNIT   1018 AT TIME STEP      1, STRESS PERIOD     18
 UBDSV06 SAVING              RCH IN MODEL TEST_TRANS       PACKAGE TEST_TRANS      CONNECTED TO MODEL TEST_TRANS       PACKAGE RCHA             ON UNIT   1018 AT TIME STEP      1, STRESS PERIOD     18
 UBDSV06 SAVING              CHD IN MODEL TEST_TRANS       PACKAGE TEST_TRANS      CONNECTED TO MODEL TEST_TRANS       PACKAGE CHD              ON UNIT   1018 AT TIME STEP      1, STRESS PERIOD     18
1
  HEAD IN LAYER   1 AT END OF TIME STEP   1 IN STRESS PERIOD   18
  ---------------------------------------------------------------------------

                1               2               3               4               5               6               7               8               9              10
               11              12              13              14              15              16              17              18              19              20
               21              22              23              24              25              26              27              28              29              30
 ................................................................................................................................................................
   1      27.8734         27.8681         27.8575         27.8414         27.8200         27.7932         27.7609         27.7230         27.6796         27.6304    
          27.5754         27.5144         27.4474         27.3742         27.2946         27.2084         27.1154         27.0153         26.9080         26.7931    
          26.6705         26.5401         26.4021         26.2572         26.1075         25.9575         25.8167         25.7040         25.6561         25.7352    
   2      27.8734         27.8681         27.8575         27.8414         27.8200         27.7932         27.7609         27.7230         27.6796         27.6304    
          27.5754         27.5144         27.4474         27.3742         27.2946         27.2084         27.1154         27.0153         26.9080         26.7931    
          26.6705         26.5401         26.4021         26.2572         26.1075         25.9575         25.8167         25.7040         25.6561         25.7352    
   3      27.8734         27.8681         27.8575         27.8414         27.8200         27.7932         27.7609         27.7230         27.6796         27.6304    
          27.5754         27.5144         27.4474         27.3742         27.2946         27.2084         27.1154         27.0153         26.9080         26.7931    
          26.6705         26.5401         26.4021         26.2572         26.1075         25.9575         25.8167         25.7040         25.6561         25.7352    
   4      27.8734         27.8681         27.8575         27.8414         27.8200         27.7932         27.7609         27.7230         27.6796         27.6304    
          27.5754         27.5144         27.4474         27.3742         27.2946         27.2084         27.1154         27.0153         26.9080         26.7931    
          26.6705         26.5401         26.4021         26.2572         26.1075         25.9575         25.8167         25.7040         25.6561         25.7352    
   5      27.8734         27.8681         27.8575         27.8414         27.8200         27.7932         27.7609         27.7230         27.6796         27.6304    
          27.5754         27.5144         27.4474         27.3742         27.2946         27.2084         27.1154         27.0153         26.9080         26.7931    
          26.6705         26.5401         26.4021         26.2572         26.1075         25.9575         25.8167         25.7040         25.6561         25.7352    
   6      27.8734         27.8681         27.8575         27.8414         27.8200         27.7932         27.7609         27.7230         27.6796         27.6304    
          27.5754         27.5144         27.4474         27.3742         27.2946         27.2084         27.1154         27.0153         26.9080         26.7931    
          26.6705         26.5401         26.4021         26.2572         26.1075         25.9575         25.8167         25.7040         25.6561         25.7352    
   7      27.8734         27.8681         27.8575         27.8414         27.8200         27.7932         27.7609         27.7230         27.6796         27.6304    
          27.5754         27.5144         27.4474         27.3742         27.2946         27.2084         27.1154         27.0153         26.9080         26.7931    
          26.6705         26.5401         26.4021         26.2572         26.1075         25.9575         25.8167         25.7040         25.6561         25.7352    
   8      27.8734         27.8681         27.8575         27.8414         27.8200         27.7932         27.7609         27.7230         27.6796         27.6304    
          27.5754         27.5144         27.4474         27.3742         27.2946         27.2084         27.1154         27.0153         26.9080         26.7931    
          26.6705         26.5401         26.4021         26.2572         26.1075         25.9575         25.8167         25.7040         25.6561         25.7352    
   9      27.8734         27.8681         27.8575         27.8414         27.8200         27.7932         27.7609         27.7230         27.6796         27.6304    
          27.5754         27.5144         27.4474         27.3742         27.2946         27.2084         27.1154         27.0153         26.9080         26.7931    
          26.6705         26.5401         26.4021         26.2572         26.1075         25.9575         25.8167         25.7040         25.6561         25.7352    
  10      27.8734         27.8681         27.8575         27.8414         27.8200         27.7932         27.7609         27.7230         27.6796         27.6304    
          27.5754         27.5144         27.4474         27.3742         27.2946         27.2084         27.1154         27.0153         26.9080         26.7931    
          26.6705         26.5401         26.4021         26.2572         26.1075         25.9575         25.8167         25.7040         25.6561         25.7352    
  11      27.8734         27.8681         27.8575         27.8414         27.8200         27.7932         27.7609         27.7230         27.6796         27.6304    
          27.5754         27.5144         27.4474         27.3742         27.2946         27.2084         27.1154         27.0153         26.9080         26.7931    
          26.6705         26.5401         26.4021         26.2572         26.1075         25.9575         25.8167         25.7040         25.6561         25.7352    
  12      27.8734         27.8681         27.8575         27.8414         27.8200         27.7932         27.7609         27.7230         27.6796         27.6304    
          27.5754         27.5144         27.4474         27.3742         27.2946         27.2084         27.1154         27.0153         26.9080         26.7931    
          26.6705         26.5401         26.4021         26.2572         26.1075         25.9575         25.8167         25.7040         25.6561         25.7352    
  13      27.8734         27.8681         27.8575         27.8414         27.8200         27.7932         27.7609         27.7230         27.6796         27.6304    
          27.5754         27.5144         27.4474         27.3742         27.2946         27.2084         27.1154         27.0153         26.9080         26.7931    
          26.6705         26.5401         26.4021         26.2572         26.1075         25.9575         25.8167         25.7040         25.6561         25.7352    
  14      27.8734         27.8681         27.8575         27.8414         27.8200         27.7932         27.7609         27.7230         27.6796         27.6304    
          27.5754         27.5144         27.4474         27.3742         27.2946         27.2084         27.1154         27.0153         26.9080         26.7931    
          26.6705         26.5401         26.4021         26.2572         26.1075         25.9575         25.8167         25.7040         25.6561         25.7352    
  15      27.8734         27.8681         27.8575         27.8414         27.8200         27.7932         27.7609         27.7230         27.6796         27.6304    
          27.5754         27.5144         27.4474         27.3742         27.2946         27.2084         27.1154         27.0153         26.9080         26.7931    
          26.6705         26.5401         26.4021         26.2572         26.1075         25.9575         25.8167         25.7040         25.6561         25.7352    
  16      27.8734         27.8681         27.8575         27.8414         27.8200         27.7932         27.7609         27.7230         27.6796         27.6304    
          27.5754         27.5144         27.4474         27.3742         27.2946         27.2084         27.1154         27.0153         26.9080         26.7931    
          26.6705         26.5401         26.4021         26.2572         26.1075         25.9575         25.8167         25.7040         25.6561         25.7352    
  17      27.8734         27.8681         27.8575         27.8414         27.8200         27.7932         27.7609         27.7230         27.6796         27.6304    
          27.5754         27.5144         27.4474         27.3742         27.2946         27.2084         27.1154         27.0153         26.9080         26.7931    
          26.6705         26.5401         26.4021         26.2572         26.1075         25.9575         25.8167         25.7040         25.6561         25.7352    
  18      27.8734         27.8681         27.8575         27.8414         27.8200         27.7932         27.7609         27.7230         27.6796         27.6304    
          27.5754         27.5144         27.4474         27.3742         27.2946         27.2084         27.1154         27.0153         26.9080         26.7931    
          26.6705         26.5401         26.4021         26.2572         26.1075         25.9575         25.8167         25.7040         25.6561         25.7352    
  19      27.8734         27.8681         27.8575         27.8414         27.8200         27.7932         27.7609         27.7230         27.6796         27.6304    
          27.5754         27.5144         27.4474         27.3742         27.2946         27.2084         27.1154         27.0153         26.9080         26.7931    
          26.6705         26.5401         26.4021         26.2572         26.1075         25.9575         25.8167         25.7040         25.6561         25.7352    
  20      27.8734         27.8681         27.8575         27.8414         27.8200         27.7932         27.7609         27.7230         27.6796         27.6304    
          27.5754         27.5144         27.4474         27.3742         27.2946         27.2084         27.1154         27.0153         26.9080         26.7931    
          26.6705         26.5401         26.4021         26.2572         26.1075         25.9575         25.8167         25.7040         25.6561         25.7352    
  21      27.8734         27.8681         27.8575         27.8414         27.8200         27.7932         27.7609         27.7230         27.6796         27.6304    
          27.5754         27.5144         27.4474         27.3742         27.2946         27.2084         27.1154         27.0153         26.9080         26.7931    
          26.6705         26.5401         26.4021         26.2572         26.1075         25.9575         25.8167         25.7040         25.6561         25.7352    
  22      27.8734         27.8681         27.8575         27.8414         27.8200         27.7932         27.7609         27.7230         27.6796         27.6304    
          27.5754         27.5144         27.4474         27.3742         27.2946         27.2084         27.1154         27.0153         26.9080         26.7931    
          26.6705         26.5401         26.4021         26.2572         26.1075         25.9575         25.8167         25.7040         25.6561         25.7352    
  23      27.8734         27.8681         27.8575         27.8414         27.8200         27.7932         27.7609         27.7230         27.6796         27.6304    
          27.5754         27.5144         27.4474         27.3742         27.2946         27.2084         27.1154         27.0153         26.9080         26.7931    
          26.6705         26.5401         26.4021         26.2572         26.1075         25.9575         25.8167         25.7040         25.6561         25.7352    
  24      27.8734         27.8681         27.8575         27.8414         27.8200         27.7932         27.7609         27.7230         27.6796         27.6304    
          27.5754         27.5144         27.4474         27.3742         27.2946         27.2084         27.1154         27.0153         26.9080         26.7931    
          26.6705         26.5401         26.4021         26.2572         26.1075         25.9575         25.8167         25.7040         25.6561         25.7352    
  25      27.8734         27.8681         27.8575         27.8414         27.8200         27.7932         27.7609         27.7230         27.6796         27.6304    
          27.5754         27.5144         27.4474         27.3742         27.2946         27.2084         27.1154         27.0153         26.9080         26.7931    
          26.6705         26.5401         26.4021         26.2572         26.1075         25.9575         25.8167         25.7040         25.6561         25.7352    
  26      27.8734         27.8681         27.8575         27.8414         27.8200         27.7932         27.7609         27.7230         27.6796         27.6304    
          27.5754         27.5144         27.4474         27.3742         27.2946         27.2084         27.1154         27.0153         26.9080         26.7931    
          26.6705         26.5401         26.4021         26.2572         26.1075         25.9575         25.8167         25.7040         25.6561         25.7352    
  27      27.8734         27.8681         27.8575         27.8414         27.8200         27.7932         27.7609         27.7230         27.6796         27.6304    
          27.5754         27.5144         27.4474         27.3742         27.2946         27.2084         27.1154         27.0153         26.9080         26.7931    
          26.6705         26.5401         26.4021         26.2572         26.1075         25.9575         25.8167         25.7040         25.6561         25.7352    
  28      27.8734         27.8681         27.8575         27.8414         27.8200         27.7932         27.7609         27.7230         27.6796         27.6304    
          27.5754         27.5144         27.4474         27.3742         27.2946         27.2084         27.1154         27.0153         26.9080         26.7931    
          26.6705         26.5401         26.4021         26.2572         26.1075         25.9575         25.8167         25.7040         25.6561         25.7352    
  29      27.8734         27.8681         27.8575         27.8414         27.8200         27.7932         27.7609         27.7230         27.6796         27.6304    
          27.5754         27.5144         27.4474         27.3742         27.2946         27.2084         27.1154         27.0153         26.9080         26.7931    
          26.6705         26.5401         26.4021         26.2572         26.1075         25.9575         25.8167         25.7040         25.6561         25.7352    
  30      27.8734         27.8681         27.8575         27.8414         27.8200         27.7932         27.7609         27.7230         27.6796         27.6304    
          27.5754         27.5144         27.4474         27.3742         27.2946         27.2084         27.1154         27.0153         26.9080         26.7931    
          26.6705         26.5401         26.4021         26.2572         26.1075         25.9575         25.8167         25.7040         25.6561         25.7352    

 HEAD WILL BE SAVED ON UNIT 1019 AT END OF TIME STEP    1, STRESS PERIOD   18



         TIME SUMMARY AT END OF TIME STEP    1 IN STRESS PERIOD   18
                    SECONDS     MINUTES      HOURS       DAYS        YEARS
                    -----------------------------------------------------------
   TIME STEP LENGTH 2.59200E+05  4320.0      72.000      3.0000     8.21355E-03
 STRESS PERIOD TIME 2.59200E+05  4320.0      72.000      3.0000     8.21355E-03
         TOTAL TIME 4.18176E+07 6.96960E+05  11616.      484.00      1.3251    
 UBDSV1 SAVING           STO-SS ON UNIT   1018 AT TIME STEP      2, STRESS PERIOD     18
 UBDSV1 SAVING           STO-SY ON UNIT   1018 AT TIME STEP      2, STRESS PERIOD     18
 UBDSV1 SAVING     FLOW-JA-FACE ON UNIT   1018 AT TIME STEP      2, STRESS PERIOD     18
 UBDSV06 SAVING              RCH IN MODEL TEST_TRANS       PACKAGE TEST_TRANS      CONNECTED TO MODEL TEST_TRANS       PACKAGE RCHA             ON UNIT   1018 AT TIME STEP      2, STRESS PERIOD     18
 UBDSV06 SAVING              CHD IN MODEL TEST_TRANS       PACKAGE TEST_TRANS      CONNECTED TO MODEL TEST_TRANS       PACKAGE CHD              ON UNIT   1018 AT TIME STEP      2, STRESS PERIOD     18

 HEAD WILL BE SAVED ON UNIT 1019 AT END OF TIME STEP    2, STRESS PERIOD   18
 UBDSV1 SAVING           STO-SS ON UNIT   1018 AT TIME STEP      3, STRESS PERIOD     18
 UBDSV1 SAVING           STO-SY ON UNIT   1018 AT TIME STEP      3, STRESS PERIOD     18
 UBDSV1 SAVING     FLOW-JA-FACE ON UNIT   1018 AT TIME STEP      3, STRESS PERIOD     18
 UBDSV06 SAVING              RCH IN MODEL TEST_TRANS       PACKAGE TEST_TRANS      CONNECTED TO MODEL TEST_TRANS       PACKAGE RCHA             ON UNIT   1018 AT TIME STEP      3, STRESS PERIOD     18
 UBDSV06 SAVING              CHD IN MODEL TEST_TRANS       PACKAGE TEST_TRANS      CONNECTED TO MODEL TEST_TRANS       PACKAGE CHD              ON UNIT   1018 AT TIME STEP      3, STRESS PERIOD     18

 HEAD WILL BE SAVED ON UNIT 1019 AT END OF TIME STEP    3, STRESS PERIOD   18
 UBDSV1 SAVING           STO-SS ON UNIT   1018 AT TIME STEP      4, STRESS PERIOD     18
 UBDSV1 SAVING           STO-SY ON UNIT   1018 AT TIME STEP      4, STRESS PERIOD     18
 UBDSV1 SAVING     FLOW-JA-FACE ON UNIT   1018 AT TIME STEP      4, STRESS PERIOD     18
 UBDSV06 SAVING              RCH IN MODEL TEST_TRANS       PACKAGE TEST_TRANS      CONNECTED TO MODEL TEST_TRANS       PACKAGE RCHA             ON UNIT   1018 AT TIME STEP      4, STRESS PERIOD     18
 UBDSV06 SAVING              CHD IN MODEL TEST_TRANS       PACKAGE TEST_TRANS      CONNECTED TO MODEL TEST_TRANS       PACKAGE CHD              ON UNIT   1018 AT TIME STEP      4, STRESS PERIOD     18

 HEAD WILL BE SAVED ON UNIT 1019 AT END OF TIME STEP    4, STRESS PERIOD   18
 UBDSV1 SAVING           STO-SS ON UNIT   1018 AT TIME STEP      5, STRESS PERIOD     18
 UBDSV1 SAVING           STO-SY ON UNIT   1018 AT TIME STEP      5, STRESS PERIOD     18
 UBDSV1 SAVING     FLOW-JA-FACE ON UNIT   1018 AT TIME STEP      5, STRESS PERIOD     18
 UBDSV06 SAVING              RCH IN MODEL TEST_TRANS       PACKAGE TEST_TRANS      CONNECTED TO MODEL TEST_TRANS       PACKAGE RCHA             ON UNIT   1018 AT TIME STEP      5, STRESS PERIOD     18
 UBDSV06 SAVING              CHD IN MODEL TEST_TRANS       PACKAGE TEST_TRANS      CONNECTED TO MODEL TEST_TRANS       PACKAGE CHD              ON UNIT   1018 AT TIME STEP      5, STRESS PERIOD     18

 HEAD WILL BE SAVED ON UNIT 1019 AT END OF TIME STEP    5, STRESS PERIOD   18
 UBDSV1 SAVING           STO-SS ON UNIT   1018 AT TIME STEP      6, STRESS PERIOD     18
 UBDSV1 SAVING           STO-SY ON UNIT   1018 AT TIME STEP      6, STRESS PERIOD     18
 UBDSV1 SAVING     FLOW-JA-FACE ON UNIT   1018 AT TIME STEP      6, STRESS PERIOD     18
 UBDSV06 SAVING              RCH IN MODEL TEST_TRANS       PACKAGE TEST_TRANS      CONNECTED TO MODEL TEST_TRANS       PACKAGE RCHA             ON UNIT   1018 AT TIME STEP      6, STRESS PERIOD     18
 UBDSV06 SAVING              CHD IN MODEL TEST_TRANS       PACKAGE TEST_TRANS      CONNECTED TO MODEL TEST_TRANS       PACKAGE CHD              ON UNIT   1018 AT TIME STEP      6, STRESS PERIOD     18

 HEAD WILL BE SAVED ON UNIT 1019 AT END OF TIME STEP    6, STRESS PERIOD   18
 UBDSV1 SAVING           STO-SS ON UNIT   1018 AT TIME STEP      7, STRESS PERIOD     18
 UBDSV1 SAVING           STO-SY ON UNIT   1018 AT TIME STEP      7, STRESS PERIOD     18
 UBDSV1 SAVING     FLOW-JA-FACE ON UNIT   1018 AT TIME STEP      7, STRESS PERIOD     18
 UBDSV06 SAVING              RCH IN MODEL TEST_TRANS       PACKAGE TEST_TRANS      CONNECTED TO MODEL TEST_TRANS       PACKAGE RCHA             ON UNIT   1018 AT TIME STEP      7, STRESS PERIOD     18
 UBDSV06 SAVING              CHD IN MODEL TEST_TRANS       PACKAGE TEST_TRANS      CONNECTED TO MODEL TEST_TRANS       PACKAGE CHD              ON UNIT   1018 AT TIME STEP      7, STRESS PERIOD     18

 HEAD WILL BE SAVED ON UNIT 1019 AT END OF TIME STEP    7, STRESS PERIOD   18
 UBDSV1 SAVING           STO-SS ON UNIT   1018 AT TIME STEP      8, STRESS PERIOD     18
 UBDSV1 SAVING           STO-SY ON UNIT   1018 AT TIME STEP      8, STRESS PERIOD     18
 UBDSV1 SAVING     FLOW-JA-FACE ON UNIT   1018 AT TIME STEP      8, STRESS PERIOD     18
 UBDSV06 SAVING              RCH IN MODEL TEST_TRANS       PACKAGE TEST_TRANS      CONNECTED TO MODEL TEST_TRANS       PACKAGE RCHA             ON UNIT   1018 AT TIME STEP      8, STRESS PERIOD     18
 UBDSV06 SAVING              CHD IN MODEL TEST_TRANS       PACKAGE TEST_TRANS      CONNECTED TO MODEL TEST_TRANS       PACKAGE CHD              ON UNIT   1018 AT TIME STEP      8, STRESS PERIOD     18

 HEAD WILL BE SAVED ON UNIT 1019 AT END OF TIME STEP    8, STRESS PERIOD   18
 UBDSV1 SAVING           STO-SS ON UNIT   1018 AT TIME STEP      9, STRESS PERIOD     18
 UBDSV1 SAVING           STO-SY ON UNIT   1018 AT TIME STEP      9, STRESS PERIOD     18
 UBDSV1 SAVING     FLOW-JA-FACE ON UNIT   1018 AT TIME STEP      9, STRESS PERIOD     18
 UBDSV06 SAVING              RCH IN MODEL TEST_TRANS       PACKAGE TEST_TRANS      CONNECTED TO MODEL TEST_TRANS       PACKAGE RCHA             ON UNIT   1018 AT TIME STEP      9, STRESS PERIOD     18
 UBDSV06 SAVING              CHD IN MODEL TEST_TRANS       PACKAGE TEST_TRANS      CONNECTED TO MODEL TEST_TRANS       PACKAGE CHD              ON UNIT   1018 AT TIME STEP      9, STRESS PERIOD     18

 HEAD WILL BE SAVED ON UNIT 1019 AT END OF TIME STEP    9, STRESS PERIOD   18
 UBDSV1 SAVING           STO-SS ON UNIT   1018 AT TIME STEP     10, STRESS PERIOD     18
 UBDSV1 SAVING           STO-SY ON UNIT   1018 AT TIME STEP     10, STRESS PERIOD     18
 UBDSV1 SAVING     FLOW-JA-FACE ON UNIT   1018 AT TIME STEP     10, STRESS PERIOD     18
 UBDSV06 SAVING              RCH IN MODEL TEST_TRANS       PACKAGE TEST_TRANS      CONNECTED TO MODEL TEST_TRANS       PACKAGE RCHA             ON UNIT   1018 AT TIME STEP     10, STRESS PERIOD     18
 UBDSV06 SAVING              CHD IN MODEL TEST_TRANS       PACKAGE TEST_TRANS      CONNECTED TO MODEL TEST_TRANS       PACKAGE CHD              ON UNIT   1018 AT TIME STEP     10, STRESS PERIOD     18
1
  HEAD IN LAYER   1 AT END OF TIME STEP  10 IN STRESS PERIOD   18
  ---------------------------------------------------------------------------

                1               2               3               4               5               6               7               8               9              10
               11              12              13              14              15              16              17              18              19              20
               21              22              23              24              25              26              27              28              29              30
 ................................................................................................................................................................
   1      27.7054         27.7007         27.6913         27.6772         27.6585         27.6350         27.6069         27.5741         27.5367         27.4947    
          27.4480         27.3968         27.3411         27.2810         27.2164         27.1475         27.0745         26.9972         26.9160         26.8307    
          26.7416         26.6486         26.5518         26.4509         26.3458         26.2361         26.1212         26.0002         25.8721         25.7352    
   2      27.7054         27.7007         27.6913         27.6772         27.6585         27.6350         27.6069         27.5741         27.5367         27.4947    
          27.4480         27.3968         27.3411         27.2810         27.2164         27.1475         27.0745         26.9972         26.9160         26.8307    
          26.7416         26.6486         26.5518         26.4509         26.3458         26.2361         26.1212         26.0002         25.8721         25.7352    
   3      27.7054         27.7007         27.6913         27.6772         27.6585         27.6350         27.6069         27.5741         27.5367         27.4947    
          27.4480         27.3968         27.3411         27.2810         27.2164         27.1475         27.0745         26.9972         26.9160         26.8307    
          26.7416         26.6486         26.5518         26.4509         26.3458         26.2361         26.1212         26.0002         25.8721         25.7352    
   4      27.7054         27.7007         27.6913         27.6772         27.6585         27.6350         27.6069         27.5741         27.5367         27.4947    
          27.4480         27.3968         27.3411         27.2810         27.2164         27.1475         27.0745         26.9972         26.9160         26.8307    
          26.7416         26.6486         26.5518         26.4509         26.3458         26.2361         26.1212         26.0002         25.8721         25.7352    
   5      27.7054         27.7007         27.6913         27.6772         27.6585         27.6350         27.6069         27.5741         27.5367         27.4947    
          27.4480         27.3968         27.3411         27.2810         27.2164         27.1475         27.0745         26.9972         26.9160         26.8307    
          26.7416         26.6486         26.5518         26.4509         26.3458         26.2361         26.1212         26.0002         25.8721         25.7352    
   6      27.7054         27.7007         27.6913         27.6772         27.6585         27.6350         27.6069         27.5741         27.5367         27.4947    
          27.4480         27.3968         27.3411         27.2810         27.2164         27.1475         27.0745         26.9972         26.9160         26.8307    
          26.7416         26.6486         26.5518         26.4509         26.3458         26.2361         26.1212         26.0002         25.8721         25.7352    
   7      27.7054         27.7007         27.6913         27.6772         27.6585         27.6350         27.6069         27.5741         27.5367         27.4947    
          27.4480         27.3968         27.3411         27.2810         27.2164         27.1475         27.0745         26.9972         26.9160         26.8307    
          26.7416         26.6486         26.5518         26.4509         26.3458         26.2361         26.1212         26.0002         25.8721         25.7352    
   8      27.7054         27.7007         27.6913         27.6772         27.6585         27.6350         27.6069         27.5741         27.5367         27.4947    
          27.4480         27.3968         27.3411         27.2810         27.2164         27.1475         27.0745         26.9972         26.9160         26.8307    
          26.7416         26.6486         26.5518         26.4509         26.3458         26.2361         26.1212         26.0002         25.8721         25.7352    
   9      27.7054         27.7007         27.6913         27.6772         27.6585         27.6350         27.6069         27.5741         27.5367         27.4947    
          27.4480         27.3968         27.3411         27.2810         27.2164         27.1475         27.0745         26.9972         26.9160         26.8307    
          26.7416         26.6486         26.5518         26.4509         26.3458         26.2361         26.1212         26.0002         25.8721         25.7352    
  10      27.7054         27.7007         27.6913         27.6772         27.6585         27.6350         27.6069         27.5741         27.5367         27.4947    
          27.4480         27.3968         27.3411         27.2810         27.2164         27.1475         27.0745         26.9972         26.9160         26.8307    
          26.7416         26.6486         26.5518         26.4509         26.3458         26.2361         26.1212         26.0002         25.8721         25.7352    
  11      27.7054         27.7007         27.6913         27.6772         27.6585         27.6350         27.6069         27.5741         27.5367         27.4947    
          27.4480         27.3968         27.3411         27.2810         27.2164         27.1475         27.0745         26.9972         26.9160         26.8307    
          26.7416         26.6486         26.5518         26.4509         26.3458         26.2361         26.1212         26.0002         25.8721         25.7352    
  12      27.7054         27.7007         27.6913         27.6772         27.6585         27.6350         27.6069         27.5741         27.5367         27.4947    
          27.4480         27.3968         27.3411         27.2810         27.2164         27.1475         27.0745         26.9972         26.9160         26.8307    
          26.7416         26.6486         26.5518         26.4509         26.3458         26.2361         26.1212         26.0002         25.8721         25.7352    
  13      27.7054         27.7007         27.6913         27.6772         27.6585         27.6350         27.6069         27.5741         27.5367         27.4947    
          27.4480         27.3968         27.3411         27.2810         27.2164         27.1475         27.0745         26.9972         26.9160         26.8307    
          26.7416         26.6486         26.5518         26.4509         26.3458         26.2361         26.1212         26.0002         25.8721         25.7352    
  14      27.7054         27.7007         27.6913         27.6772         27.6585         27.6350         27.6069         27.5741         27.5367         27.4947    
          27.4480         27.3968         27.3411         27.2810         27.2164         27.1475         27.0745         26.9972         26.9160         26.8307    
          26.7416         26.6486         26.5518         26.4509         26.3458         26.2361         26.1212         26.0002         25.8721         25.7352    
  15      27.7054         27.7007         27.6913         27.6772         27.6585         27.6350         27.6069         27.5741         27.5367         27.4947    
          27.4480         27.3968         27.3411         27.2810         27.2164         27.1475         27.0745         26.9972         26.9160         26.8307    
          26.7416         26.6486         26.5518         26.4509         26.3458         26.2361         26.1212         26.0002         25.8721         25.7352    
  16      27.7054         27.7007         27.6913         27.6772         27.6585         27.6350         27.6069         27.5741         27.5367         27.4947    
          27.4480         27.3968         27.3411         27.2810         27.2164         27.1475         27.0745         26.9972         26.9160         26.8307    
          26.7416         26.6486         26.5518         26.4509         26.3458         26.2361         26.1212         26.0002         25.8721         25.7352    
  17      27.7054         27.7007         27.6913         27.6772         27.6585         27.6350         27.6069         27.5741         27.5367         27.4947    
          27.4480         27.3968         27.3411         27.2810         27.2164         27.1475         27.0745         26.9972         26.9160         26.8307    
          26.7416         26.6486         26.5518         26.4509         26.3458         26.2361         26.1212         26.0002         25.8721         25.7352    
  18      27.7054         27.7007         27.6913         27.6772         27.6585         27.6350         27.6069         27.5741         27.5367         27.4947    
          27.4480         27.3968         27.3411         27.2810         27.2164         27.1475         27.0745         26.9972         26.9160         26.8307    
          26.7416         26.6486         26.5518         26.4509         26.3458         26.2361         26.1212         26.0002         25.8721         25.7352    
  19      27.7054         27.7007         27.6913         27.6772         27.6585         27.6350         27.6069         27.5741         27.5367         27.4947    
          27.4480         27.3968         27.3411         27.2810         27.2164         27.1475         27.0745         26.9972         26.9160         26.8307    
          26.7416         26.6486         26.5518         26.4509         26.3458         26.2361         26.1212         26.0002         25.8721         25.7352    
  20      27.7054         27.7007         27.6913         27.6772         27.6585         27.6350         27.6069         27.5741         27.5367         27.4947    
          27.4480         27.3968         27.3411         27.2810         27.2164         27.1475         27.0745         26.9972         26.9160         26.8307    
          26.7416         26.6486         26.5518         26.4509         26.3458         26.2361         26.1212         26.0002         25.8721         25.7352    
  21      27.7054         27.7007         27.6913         27.6772         27.6585         27.6350         27.6069         27.5741         27.5367         27.4947    
          27.4480         27.3968         27.3411         27.2810         27.2164         27.1475         27.0745         26.9972         26.9160         26.8307    
          26.7416         26.6486         26.5518         26.4509         26.3458         26.2361         26.1212         26.0002         25.8721         25.7352    
  22      27.7054         27.7007         27.6913         27.6772         27.6585         27.6350         27.6069         27.5741         27.5367         27.4947    
          27.4480         27.3968         27.3411         27.2810         27.2164         27.1475         27.0745         26.9972         26.9160         26.8307    
          26.7416         26.6486         26.5518         26.4509         26.3458         26.2361         26.1212         26.0002         25.8721         25.7352    
  23      27.7054         27.7007         27.6913         27.6772         27.6585         27.6350         27.6069         27.5741         27.5367         27.4947    
          27.4480         27.3968         27.3411         27.2810         27.2164         27.1475         27.0745         26.9972         26.9160         26.8307    
          26.7416         26.6486         26.5518         26.4509         26.3458         26.2361         26.1212         26.0002         25.8721         25.7352    
  24      27.7054         27.7007         27.6913         27.6772         27.6585         27.6350         27.6069         27.5741         27.5367         27.4947    
          27.4480         27.3968         27.3411         27.2810         27.2164         27.1475         27.0745         26.9972         26.9160         26.8307    
          26.7416         26.6486         26.5518         26.4509         26.3458         26.2361         26.1212         26.0002         25.8721         25.7352    
  25      27.7054         27.7007         27.6913         27.6772         27.6585         27.6350         27.6069         27.5741         27.5367         27.4947    
          27.4480         27.3968         27.3411         27.2810         27.2164         27.1475         27.0745         26.9972         26.9160         26.8307    
          26.7416         26.6486         26.5518         26.4509         26.3458         26.2361         26.1212         26.0002         25.8721         25.7352    
  26      27.7054         27.7007         27.6913         27.6772         27.6585         27.6350         27.6069         27.5741         27.5367         27.4947    
          27.4480         27.3968         27.3411         27.2810         27.2164         27.1475         27.0745         26.9972         26.9160         26.8307    
          26.7416         26.6486         26.5518         26.4509         26.3458         26.2361         26.1212         26.0002         25.8721         25.7352    
  27      27.7054         27.7007         27.6913         27.6772         27.6585         27.6350         27.6069         27.5741         27.5367         27.4947    
          27.4480         27.3968         27.3411         27.2810         27.2164         27.1475         27.0745         26.9972         26.9160         26.8307    
          26.7416         26.6486         26.5518         26.4509         26.3458         26.2361         26.1212         26.0002         25.8721         25.7352    
  28      27.7054         27.7007         27.6913         27.6772         27.6585         27.6350         27.6069         27.5741         27.5367         27.4947    
          27.4480         27.3968         27.3411         27.2810         27.2164         27.1475         27.0745         26.9972         26.9160         26.8307    
          26.7416         26.6486         26.5518         26.4509         26.3458         26.2361         26.1212         26.0002         25.8721         25.7352    
  29      27.7054         27.7007         27.6913         27.6772         27.6585         27.6350         27.6069         27.5741         27.5367         27.4947    
          27.4480         27.3968         27.3411         27.2810         27.2164         27.1475         27.0745         26.9972         26.9160         26.8307    
          26.7416         26.6486         26.5518         26.4509         26.3458         26.2361         26.1212         26.0002         25.8721         25.7352    
  30      27.7054         27.7007         27.6913         27.6772         27.6585         27.6350         27.6069         27.5741         27.5367         27.4947    
          27.4480         27.3968         27.3411         27.2810         27.2164         27.1475         27.0745         26.9972         26.9160         26.8307    
          26.7416         26.6486         26.5518         26.4509         26.3458         26.2361         26.1212         26.0002         25.8721         25.7352    

 HEAD WILL BE SAVED ON UNIT 1019 AT END OF TIME STEP   10, STRESS PERIOD   18


  VOLUME BUDGET FOR ENTIRE MODEL AT END OF TIME STEP   10, STRESS PERIOD  18
  ---------------------------------------------------------------------------------------------------

     CUMULATIVE VOLUME      L**3       RATES FOR THIS TIME STEP      L**3/T          PACKAGE NAME    
     ------------------                 ------------------------                     ----------------

           IN:                                      IN:
           ---                                      ---
              STO-SS =          29.8962                STO-SS =       6.2473E-02     STORAGE         
              STO-SY =       19024.2350                STO-SY =          38.8881     STORAGE         
                 RCH =       84616.4745                   RCH =          71.5068     RCHA            
                 CHD =         763.6195                   CHD =           0.0000     CHD             

            TOTAL IN =      104434.2252              TOTAL IN =         110.4574

          OUT:                                     OUT:
          ----                                     ----
              STO-SS =          21.5771                STO-SS =       1.6376E-02     STORAGE         
              STO-SY =       14134.8604                STO-SY =          10.9950     STORAGE         
                 RCH =           0.0000                   RCH =           0.0000     RCHA            
                 CHD =       90277.3301                   CHD =          99.4474     CHD             

           TOTAL OUT =      104433.7676             TOTAL OUT =         110.4587

            IN - OUT =           0.4577              IN - OUT =      -1.2825E-03

 PERCENT DISCREPANCY =           0.00     PERCENT DISCREPANCY =          -0.00




         TIME SUMMARY AT END OF TIME STEP   10 IN STRESS PERIOD   18
                    SECONDS     MINUTES      HOURS       DAYS        YEARS
                    -----------------------------------------------------------
   TIME STEP LENGTH 2.59200E+05  4320.0      72.000      3.0000     8.21355E-03
 STRESS PERIOD TIME 2.59200E+06  43200.      720.00      30.000     8.21355E-02
         TOTAL TIME 4.41504E+07 7.35840E+05  12264.      511.00      1.3990    

 OUTPUT CONTROL FOR STRESS PERIOD 19 IS REPEATED USING SETTINGS FROM A PREVIOUS STRESS PERIOD.


 STRESS PERIOD 19 IS TRANSIENT


                 RECHARGE =  0.5479452E-03
 UBDSV1 SAVING           STO-SS ON UNIT   1018 AT TIME STEP      1, STRESS PERIOD     19
 UBDSV1 SAVING           STO-SY ON UNIT   1018 AT TIME STEP      1, STRESS PERIOD     19
 UBDSV1 SAVING     FLOW-JA-FACE ON UNIT   1018 AT TIME STEP      1, STRESS PERIOD     19
 UBDSV06 SAVING              RCH IN MODEL TEST_TRANS       PACKAGE TEST_TRANS      CONNECTED TO MODEL TEST_TRANS       PACKAGE RCHA             ON UNIT   1018 AT TIME STEP      1, STRESS PERIOD     19
 UBDSV06 SAVING              CHD IN MODEL TEST_TRANS       PACKAGE TEST_TRANS      CONNECTED TO MODEL TEST_TRANS       PACKAGE CHD              ON UNIT   1018 AT TIME STEP      1, STRESS PERIOD     19
1
  HEAD IN LAYER   1 AT END OF TIME STEP   1 IN STRESS PERIOD   19
  ---------------------------------------------------------------------------

                1               2               3               4               5               6               7               8               9              10
               11              12              13              14              15              16              17              18              19              20
               21              22              23              24              25              26              27              28              29              30
 ................................................................................................................................................................
   1      27.6857         27.6811         27.6719         27.6581         27.6397         27.6168         27.5892         27.5571         27.5205         27.4794    
          27.4338         27.3837         27.3293         27.2706         27.2076         27.1405         27.0694         26.9945         26.9160         26.8342    
          26.7497         26.6631         26.5759         26.4900         26.4089         26.3386         26.2890         26.2766         26.3270         26.4774    
   2      27.6857         27.6811         27.6719         27.6581         27.6397         27.6168         27.5892         27.5571         27.5205         27.4794    
          27.4338         27.3837         27.3293         27.2706         27.2076         27.1405         27.0694         26.9945         26.9160         26.8342    
          26.7497         26.6631         26.5759         26.4900         26.4089         26.3386         26.2890         26.2766         26.3270         26.4774    
   3      27.6857         27.6811         27.6719         27.6581         27.6397         27.6168         27.5892         27.5571         27.5205         27.4794    
          27.4338         27.3837         27.3293         27.2706         27.2076         27.1405         27.0694         26.9945         26.9160         26.8342    
          26.7497         26.6631         26.5759         26.4900         26.4089         26.3386         26.2890         26.2766         26.3270         26.4774    
   4      27.6857         27.6811         27.6719         27.6581         27.6397         27.6168         27.5892         27.5571         27.5205         27.4794    
          27.4338         27.3837         27.3293         27.2706         27.2076         27.1405         27.0694         26.9945         26.9160         26.8342    
          26.7497         26.6631         26.5759         26.4900         26.4089         26.3386         26.2890         26.2766         26.3270         26.4774    
   5      27.6857         27.6811         27.6719         27.6581         27.6397         27.6168         27.5892         27.5571         27.5205         27.4794    
          27.4338         27.3837         27.3293         27.2706         27.2076         27.1405         27.0694         26.9945         26.9160         26.8342    
          26.7497         26.6631         26.5759         26.4900         26.4089         26.3386         26.2890         26.2766         26.3270         26.4774    
   6      27.6857         27.6811         27.6719         27.6581         27.6397         27.6168         27.5892         27.5571         27.5205         27.4794    
          27.4338         27.3837         27.3293         27.2706         27.2076         27.1405         27.0694         26.9945         26.9160         26.8342    
          26.7497         26.6631         26.5759         26.4900         26.4089         26.3386         26.2890         26.2766         26.3270         26.4774    
   7      27.6857         27.6811         27.6719         27.6581         27.6397         27.6168         27.5892         27.5571         27.5205         27.4794    
          27.4338         27.3837         27.3293         27.2706         27.2076         27.1405         27.0694         26.9945         26.9160         26.8342    
          26.7497         26.6631         26.5759         26.4900         26.4089         26.3386         26.2890         26.2766         26.3270         26.4774    
   8      27.6857         27.6811         27.6719         27.6581         27.6397         27.6168         27.5892         27.5571         27.5205         27.4794    
          27.4338         27.3837         27.3293         27.2706         27.2076         27.1405         27.0694         26.9945         26.9160         26.8342    
          26.7497         26.6631         26.5759         26.4900         26.4089         26.3386         26.2890         26.2766         26.3270         26.4774    
   9      27.6857         27.6811         27.6719         27.6581         27.6397         27.6168         27.5892         27.5571         27.5205         27.4794    
          27.4338         27.3837         27.3293         27.2706         27.2076         27.1405         27.0694         26.9945         26.9160         26.8342    
          26.7497         26.6631         26.5759         26.4900         26.4089         26.3386         26.2890         26.2766         26.3270         26.4774    
  10      27.6857         27.6811         27.6719         27.6581         27.6397         27.6168         27.5892         27.5571         27.5205         27.4794    
          27.4338         27.3837         27.3293         27.2706         27.2076         27.1405         27.0694         26.9945         26.9160         26.8342    
          26.7497         26.6631         26.5759         26.4900         26.4089         26.3386         26.2890         26.2766         26.3270         26.4774    
  11      27.6857         27.6811         27.6719         27.6581         27.6397         27.6168         27.5892         27.5571         27.5205         27.4794    
          27.4338         27.3837         27.3293         27.2706         27.2076         27.1405         27.0694         26.9945         26.9160         26.8342    
          26.7497         26.6631         26.5759         26.4900         26.4089         26.3386         26.2890         26.2766         26.3270         26.4774    
  12      27.6857         27.6811         27.6719         27.6581         27.6397         27.6168         27.5892         27.5571         27.5205         27.4794    
          27.4338         27.3837         27.3293         27.2706         27.2076         27.1405         27.0694         26.9945         26.9160         26.8342    
          26.7497         26.6631         26.5759         26.4900         26.4089         26.3386         26.2890         26.2766         26.3270         26.4774    
  13      27.6857         27.6811         27.6719         27.6581         27.6397         27.6168         27.5892         27.5571         27.5205         27.4794    
          27.4338         27.3837         27.3293         27.2706         27.2076         27.1405         27.0694         26.9945         26.9160         26.8342    
          26.7497         26.6631         26.5759         26.4900         26.4089         26.3386         26.2890         26.2766         26.3270         26.4774    
  14      27.6857         27.6811         27.6719         27.6581         27.6397         27.6168         27.5892         27.5571         27.5205         27.4794    
          27.4338         27.3837         27.3293         27.2706         27.2076         27.1405         27.0694         26.9945         26.9160         26.8342    
          26.7497         26.6631         26.5759         26.4900         26.4089         26.3386         26.2890         26.2766         26.3270         26.4774    
  15      27.6857         27.6811         27.6719         27.6581         27.6397         27.6168         27.5892         27.5571         27.5205         27.4794    
          27.4338         27.3837         27.3293         27.2706         27.2076         27.1405         27.0694         26.9945         26.9160         26.8342    
          26.7497         26.6631         26.5759         26.4900         26.4089         26.3386         26.2890         26.2766         26.3270         26.4774    
  16      27.6857         27.6811         27.6719         27.6581         27.6397         27.6168         27.5892         27.5571         27.5205         27.4794    
          27.4338         27.3837         27.3293         27.2706         27.2076         27.1405         27.0694         26.9945         26.9160         26.8342    
          26.7497         26.6631         26.5759         26.4900         26.4089         26.3386         26.2890         26.2766         26.3270         26.4774    
  17      27.6857         27.6811         27.6719         27.6581         27.6397         27.6168         27.5892         27.5571         27.5205         27.4794    
          27.4338         27.3837         27.3293         27.2706         27.2076         27.1405         27.0694         26.9945         26.9160         26.8342    
          26.7497         26.6631         26.5759         26.4900         26.4089         26.3386         26.2890         26.2766         26.3270         26.4774    
  18      27.6857         27.6811         27.6719         27.6581         27.6397         27.6168         27.5892         27.5571         27.5205         27.4794    
          27.4338         27.3837         27.3293         27.2706         27.2076         27.1405         27.0694         26.9945         26.9160         26.8342    
          26.7497         26.6631         26.5759         26.4900         26.4089         26.3386         26.2890         26.2766         26.3270         26.4774    
  19      27.6857         27.6811         27.6719         27.6581         27.6397         27.6168         27.5892         27.5571         27.5205         27.4794    
          27.4338         27.3837         27.3293         27.2706         27.2076         27.1405         27.0694         26.9945         26.9160         26.8342    
          26.7497         26.6631         26.5759         26.4900         26.4089         26.3386         26.2890         26.2766         26.3270         26.4774    
  20      27.6857         27.6811         27.6719         27.6581         27.6397         27.6168         27.5892         27.5571         27.5205         27.4794    
          27.4338         27.3837         27.3293         27.2706         27.2076         27.1405         27.0694         26.9945         26.9160         26.8342    
          26.7497         26.6631         26.5759         26.4900         26.4089         26.3386         26.2890         26.2766         26.3270         26.4774    
  21      27.6857         27.6811         27.6719         27.6581         27.6397         27.6168         27.5892         27.5571         27.5205         27.4794    
          27.4338         27.3837         27.3293         27.2706         27.2076         27.1405         27.0694         26.9945         26.9160         26.8342    
          26.7497         26.6631         26.5759         26.4900         26.4089         26.3386         26.2890         26.2766         26.3270         26.4774    
  22      27.6857         27.6811         27.6719         27.6581         27.6397         27.6168         27.5892         27.5571         27.5205         27.4794    
          27.4338         27.3837         27.3293         27.2706         27.2076         27.1405         27.0694         26.9945         26.9160         26.8342    
          26.7497         26.6631         26.5759         26.4900         26.4089         26.3386         26.2890         26.2766         26.3270         26.4774    
  23      27.6857         27.6811         27.6719         27.6581         27.6397         27.6168         27.5892         27.5571         27.5205         27.4794    
          27.4338         27.3837         27.3293         27.2706         27.2076         27.1405         27.0694         26.9945         26.9160         26.8342    
          26.7497         26.6631         26.5759         26.4900         26.4089         26.3386         26.2890         26.2766         26.3270         26.4774    
  24      27.6857         27.6811         27.6719         27.6581         27.6397         27.6168         27.5892         27.5571         27.5205         27.4794    
          27.4338         27.3837         27.3293         27.2706         27.2076         27.1405         27.0694         26.9945         26.9160         26.8342    
          26.7497         26.6631         26.5759         26.4900         26.4089         26.3386         26.2890         26.2766         26.3270         26.4774    
  25      27.6857         27.6811         27.6719         27.6581         27.6397         27.6168         27.5892         27.5571         27.5205         27.4794    
          27.4338         27.3837         27.3293         27.2706         27.2076         27.1405         27.0694         26.9945         26.9160         26.8342    
          26.7497         26.6631         26.5759         26.4900         26.4089         26.3386         26.2890         26.2766         26.3270         26.4774    
  26      27.6857         27.6811         27.6719         27.6581         27.6397         27.6168         27.5892         27.5571         27.5205         27.4794    
          27.4338         27.3837         27.3293         27.2706         27.2076         27.1405         27.0694         26.9945         26.9160         26.8342    
          26.7497         26.6631         26.5759         26.4900         26.4089         26.3386         26.2890         26.2766         26.3270         26.4774    
  27      27.6857         27.6811         27.6719         27.6581         27.6397         27.6168         27.5892         27.5571         27.5205         27.4794    
          27.4338         27.3837         27.3293         27.2706         27.2076         27.1405         27.0694         26.9945         26.9160         26.8342    
          26.7497         26.6631         26.5759         26.4900         26.4089         26.3386         26.2890         26.2766         26.3270         26.4774    
  28      27.6857         27.6811         27.6719         27.6581         27.6397         27.6168         27.5892         27.5571         27.5205         27.4794    
          27.4338         27.3837         27.3293         27.2706         27.2076         27.1405         27.0694         26.9945         26.9160         26.8342    
          26.7497         26.6631         26.5759         26.4900         26.4089         26.3386         26.2890         26.2766         26.3270         26.4774    
  29      27.6857         27.6811         27.6719         27.6581         27.6397         27.6168         27.5892         27.5571         27.5205         27.4794    
          27.4338         27.3837         27.3293         27.2706         27.2076         27.1405         27.0694         26.9945         26.9160         26.8342    
          26.7497         26.6631         26.5759         26.4900         26.4089         26.3386         26.2890         26.2766         26.3270         26.4774    
  30      27.6857         27.6811         27.6719         27.6581         27.6397         27.6168         27.5892         27.5571         27.5205         27.4794    
          27.4338         27.3837         27.3293         27.2706         27.2076         27.1405         27.0694         26.9945         26.9160         26.8342    
          26.7497         26.6631         26.5759         26.4900         26.4089         26.3386         26.2890         26.2766         26.3270         26.4774    

 HEAD WILL BE SAVED ON UNIT 1019 AT END OF TIME STEP    1, STRESS PERIOD   19



         TIME SUMMARY AT END OF TIME STEP    1 IN STRESS PERIOD   19
                    SECONDS     MINUTES      HOURS       DAYS        YEARS
                    -----------------------------------------------------------
   TIME STEP LENGTH 2.59200E+05  4320.0      72.000      3.0000     8.21355E-03
 STRESS PERIOD TIME 2.59200E+05  4320.0      72.000      3.0000     8.21355E-03
         TOTAL TIME 4.44096E+07 7.40160E+05  12336.      514.00      1.4073    
 UBDSV1 SAVING           STO-SS ON UNIT   1018 AT TIME STEP      2, STRESS PERIOD     19
 UBDSV1 SAVING           STO-SY ON UNIT   1018 AT TIME STEP      2, STRESS PERIOD     19
 UBDSV1 SAVING     FLOW-JA-FACE ON UNIT   1018 AT TIME STEP      2, STRESS PERIOD     19
 UBDSV06 SAVING              RCH IN MODEL TEST_TRANS       PACKAGE TEST_TRANS      CONNECTED TO MODEL TEST_TRANS       PACKAGE RCHA             ON UNIT   1018 AT TIME STEP      2, STRESS PERIOD     19
 UBDSV06 SAVING              CHD IN MODEL TEST_TRANS       PACKAGE TEST_TRANS      CONNECTED TO MODEL TEST_TRANS       PACKAGE CHD              ON UNIT   1018 AT TIME STEP      2, STRESS PERIOD     19

 HEAD WILL BE SAVED ON UNIT 1019 AT END OF TIME STEP    2, STRESS PERIOD   19
 UBDSV1 SAVING           STO-SS ON UNIT   1018 AT TIME STEP      3, STRESS PERIOD     19
 UBDSV1 SAVING           STO-SY ON UNIT   1018 AT TIME STEP      3, STRESS PERIOD     19
 UBDSV1 SAVING     FLOW-JA-FACE ON UNIT   1018 AT TIME STEP      3, STRESS PERIOD     19
 UBDSV06 SAVING              RCH IN MODEL TEST_TRANS       PACKAGE TEST_TRANS      CONNECTED TO MODEL TEST_TRANS       PACKAGE RCHA             ON UNIT   1018 AT TIME STEP      3, STRESS PERIOD     19
 UBDSV06 SAVING              CHD IN MODEL TEST_TRANS       PACKAGE TEST_TRANS      CONNECTED TO MODEL TEST_TRANS       PACKAGE CHD              ON UNIT   1018 AT TIME STEP      3, STRESS PERIOD     19

 HEAD WILL BE SAVED ON UNIT 1019 AT END OF TIME STEP    3, STRESS PERIOD   19
 UBDSV1 SAVING           STO-SS ON UNIT   1018 AT TIME STEP      4, STRESS PERIOD     19
 UBDSV1 SAVING           STO-SY ON UNIT   1018 AT TIME STEP      4, STRESS PERIOD     19
 UBDSV1 SAVING     FLOW-JA-FACE ON UNIT   1018 AT TIME STEP      4, STRESS PERIOD     19
 UBDSV06 SAVING              RCH IN MODEL TEST_TRANS       PACKAGE TEST_TRANS      CONNECTED TO MODEL TEST_TRANS       PACKAGE RCHA             ON UNIT   1018 AT TIME STEP      4, STRESS PERIOD     19
 UBDSV06 SAVING              CHD IN MODEL TEST_TRANS       PACKAGE TEST_TRANS      CONNECTED TO MODEL TEST_TRANS       PACKAGE CHD              ON UNIT   1018 AT TIME STEP      4, STRESS PERIOD     19

 HEAD WILL BE SAVED ON UNIT 1019 AT END OF TIME STEP    4, STRESS PERIOD   19
 UBDSV1 SAVING           STO-SS ON UNIT   1018 AT TIME STEP      5, STRESS PERIOD     19
 UBDSV1 SAVING           STO-SY ON UNIT   1018 AT TIME STEP      5, STRESS PERIOD     19
 UBDSV1 SAVING     FLOW-JA-FACE ON UNIT   1018 AT TIME STEP      5, STRESS PERIOD     19
 UBDSV06 SAVING              RCH IN MODEL TEST_TRANS       PACKAGE TEST_TRANS      CONNECTED TO MODEL TEST_TRANS       PACKAGE RCHA             ON UNIT   1018 AT TIME STEP      5, STRESS PERIOD     19
 UBDSV06 SAVING              CHD IN MODEL TEST_TRANS       PACKAGE TEST_TRANS      CONNECTED TO MODEL TEST_TRANS       PACKAGE CHD              ON UNIT   1018 AT TIME STEP      5, STRESS PERIOD     19

 HEAD WILL BE SAVED ON UNIT 1019 AT END OF TIME STEP    5, STRESS PERIOD   19
 UBDSV1 SAVING           STO-SS ON UNIT   1018 AT TIME STEP      6, STRESS PERIOD     19
 UBDSV1 SAVING           STO-SY ON UNIT   1018 AT TIME STEP      6, STRESS PERIOD     19
 UBDSV1 SAVING     FLOW-JA-FACE ON UNIT   1018 AT TIME STEP      6, STRESS PERIOD     19
 UBDSV06 SAVING              RCH IN MODEL TEST_TRANS       PACKAGE TEST_TRANS      CONNECTED TO MODEL TEST_TRANS       PACKAGE RCHA             ON UNIT   1018 AT TIME STEP      6, STRESS PERIOD     19
 UBDSV06 SAVING              CHD IN MODEL TEST_TRANS       PACKAGE TEST_TRANS      CONNECTED TO MODEL TEST_TRANS       PACKAGE CHD              ON UNIT   1018 AT TIME STEP      6, STRESS PERIOD     19

 HEAD WILL BE SAVED ON UNIT 1019 AT END OF TIME STEP    6, STRESS PERIOD   19
 UBDSV1 SAVING           STO-SS ON UNIT   1018 AT TIME STEP      7, STRESS PERIOD     19
 UBDSV1 SAVING           STO-SY ON UNIT   1018 AT TIME STEP      7, STRESS PERIOD     19
 UBDSV1 SAVING     FLOW-JA-FACE ON UNIT   1018 AT TIME STEP      7, STRESS PERIOD     19
 UBDSV06 SAVING              RCH IN MODEL TEST_TRANS       PACKAGE TEST_TRANS      CONNECTED TO MODEL TEST_TRANS       PACKAGE RCHA             ON UNIT   1018 AT TIME STEP      7, STRESS PERIOD     19
 UBDSV06 SAVING              CHD IN MODEL TEST_TRANS       PACKAGE TEST_TRANS      CONNECTED TO MODEL TEST_TRANS       PACKAGE CHD              ON UNIT   1018 AT TIME STEP      7, STRESS PERIOD     19

 HEAD WILL BE SAVED ON UNIT 1019 AT END OF TIME STEP    7, STRESS PERIOD   19
 UBDSV1 SAVING           STO-SS ON UNIT   1018 AT TIME STEP      8, STRESS PERIOD     19
 UBDSV1 SAVING           STO-SY ON UNIT   1018 AT TIME STEP      8, STRESS PERIOD     19
 UBDSV1 SAVING     FLOW-JA-FACE ON UNIT   1018 AT TIME STEP      8, STRESS PERIOD     19
 UBDSV06 SAVING              RCH IN MODEL TEST_TRANS       PACKAGE TEST_TRANS      CONNECTED TO MODEL TEST_TRANS       PACKAGE RCHA             ON UNIT   1018 AT TIME STEP      8, STRESS PERIOD     19
 UBDSV06 SAVING              CHD IN MODEL TEST_TRANS       PACKAGE TEST_TRANS      CONNECTED TO MODEL TEST_TRANS       PACKAGE CHD              ON UNIT   1018 AT TIME STEP      8, STRESS PERIOD     19

 HEAD WILL BE SAVED ON UNIT 1019 AT END OF TIME STEP    8, STRESS PERIOD   19
 UBDSV1 SAVING           STO-SS ON UNIT   1018 AT TIME STEP      9, STRESS PERIOD     19
 UBDSV1 SAVING           STO-SY ON UNIT   1018 AT TIME STEP      9, STRESS PERIOD     19
 UBDSV1 SAVING     FLOW-JA-FACE ON UNIT   1018 AT TIME STEP      9, STRESS PERIOD     19
 UBDSV06 SAVING              RCH IN MODEL TEST_TRANS       PACKAGE TEST_TRANS      CONNECTED TO MODEL TEST_TRANS       PACKAGE RCHA             ON UNIT   1018 AT TIME STEP      9, STRESS PERIOD     19
 UBDSV06 SAVING              CHD IN MODEL TEST_TRANS       PACKAGE TEST_TRANS      CONNECTED TO MODEL TEST_TRANS       PACKAGE CHD              ON UNIT   1018 AT TIME STEP      9, STRESS PERIOD     19

 HEAD WILL BE SAVED ON UNIT 1019 AT END OF TIME STEP    9, STRESS PERIOD   19
 UBDSV1 SAVING           STO-SS ON UNIT   1018 AT TIME STEP     10, STRESS PERIOD     19
 UBDSV1 SAVING           STO-SY ON UNIT   1018 AT TIME STEP     10, STRESS PERIOD     19
 UBDSV1 SAVING     FLOW-JA-FACE ON UNIT   1018 AT TIME STEP     10, STRESS PERIOD     19
 UBDSV06 SAVING              RCH IN MODEL TEST_TRANS       PACKAGE TEST_TRANS      CONNECTED TO MODEL TEST_TRANS       PACKAGE RCHA             ON UNIT   1018 AT TIME STEP     10, STRESS PERIOD     19
 UBDSV06 SAVING              CHD IN MODEL TEST_TRANS       PACKAGE TEST_TRANS      CONNECTED TO MODEL TEST_TRANS       PACKAGE CHD              ON UNIT   1018 AT TIME STEP     10, STRESS PERIOD     19
1
  HEAD IN LAYER   1 AT END OF TIME STEP  10 IN STRESS PERIOD   19
  ---------------------------------------------------------------------------

                1               2               3               4               5               6               7               8               9              10
               11              12              13              14              15              16              17              18              19              20
               21              22              23              24              25              26              27              28              29              30
 ................................................................................................................................................................
   1      27.5417         27.5381         27.5310         27.5203         27.5061         27.4886         27.4676         27.4434         27.4161         27.3858    
          27.3526         27.3167         27.2784         27.2378         27.1953         27.1511         27.1055         27.0588         27.0113         26.9633    
          26.9150         26.8668         26.8187         26.7708         26.7231         26.6754         26.6275         26.5789         26.5291         26.4774    
   2      27.5417         27.5381         27.5310         27.5203         27.5061         27.4886         27.4676         27.4434         27.4161         27.3858    
          27.3526         27.3167         27.2784         27.2378         27.1953         27.1511         27.1055         27.0588         27.0113         26.9633    
          26.9150         26.8668         26.8187         26.7708         26.7231         26.6754         26.6275         26.5789         26.5291         26.4774    
   3      27.5417         27.5381         27.5310         27.5203         27.5061         27.4886         27.4676         27.4434         27.4161         27.3858    
          27.3526         27.3167         27.2784         27.2378         27.1953         27.1511         27.1055         27.0588         27.0113         26.9633    
          26.9150         26.8668         26.8187         26.7708         26.7231         26.6754         26.6275         26.5789         26.5291         26.4774    
   4      27.5417         27.5381         27.5310         27.5203         27.5061         27.4886         27.4676         27.4434         27.4161         27.3858    
          27.3526         27.3167         27.2784         27.2378         27.1953         27.1511         27.1055         27.0588         27.0113         26.9633    
          26.9150         26.8668         26.8187         26.7708         26.7231         26.6754         26.6275         26.5789         26.5291         26.4774    
   5      27.5417         27.5381         27.5310         27.5203         27.5061         27.4886         27.4676         27.4434         27.4161         27.3858    
          27.3526         27.3167         27.2784         27.2378         27.1953         27.1511         27.1055         27.0588         27.0113         26.9633    
          26.9150         26.8668         26.8187         26.7708         26.7231         26.6754         26.6275         26.5789         26.5291         26.4774    
   6      27.5417         27.5381         27.5310         27.5203         27.5061         27.4886         27.4676         27.4434         27.4161         27.3858    
          27.3526         27.3167         27.2784         27.2378         27.1953         27.1511         27.1055         27.0588         27.0113         26.9633    
          26.9150         26.8668         26.8187         26.7708         26.7231         26.6754         26.6275         26.5789         26.5291         26.4774    
   7      27.5417         27.5381         27.5310         27.5203         27.5061         27.4886         27.4676         27.4434         27.4161         27.3858    
          27.3526         27.3167         27.2784         27.2378         27.1953         27.1511         27.1055         27.0588         27.0113         26.9633    
          26.9150         26.8668         26.8187         26.7708         26.7231         26.6754         26.6275         26.5789         26.5291         26.4774    
   8      27.5417         27.5381         27.5310         27.5203         27.5061         27.4886         27.4676         27.4434         27.4161         27.3858    
          27.3526         27.3167         27.2784         27.2378         27.1953         27.1511         27.1055         27.0588         27.0113         26.9633    
          26.9150         26.8668         26.8187         26.7708         26.7231         26.6754         26.6275         26.5789         26.5291         26.4774    
   9      27.5417         27.5381         27.5310         27.5203         27.5061         27.4886         27.4676         27.4434         27.4161         27.3858    
          27.3526         27.3167         27.2784         27.2378         27.1953         27.1511         27.1055         27.0588         27.0113         26.9633    
          26.9150         26.8668         26.8187         26.7708         26.7231         26.6754         26.6275         26.5789         26.5291         26.4774    
  10      27.5417         27.5381         27.5310         27.5203         27.5061         27.4886         27.4676         27.4434         27.4161         27.3858    
          27.3526         27.3167         27.2784         27.2378         27.1953         27.1511         27.1055         27.0588         27.0113         26.9633    
          26.9150         26.8668         26.8187         26.7708         26.7231         26.6754         26.6275         26.5789         26.5291         26.4774    
  11      27.5417         27.5381         27.5310         27.5203         27.5061         27.4886         27.4676         27.4434         27.4161         27.3858    
          27.3526         27.3167         27.2784         27.2378         27.1953         27.1511         27.1055         27.0588         27.0113         26.9633    
          26.9150         26.8668         26.8187         26.7708         26.7231         26.6754         26.6275         26.5789         26.5291         26.4774    
  12      27.5417         27.5381         27.5310         27.5203         27.5061         27.4886         27.4676         27.4434         27.4161         27.3858    
          27.3526         27.3167         27.2784         27.2378         27.1953         27.1511         27.1055         27.0588         27.0113         26.9633    
          26.9150         26.8668         26.8187         26.7708         26.7231         26.6754         26.6275         26.5789         26.5291         26.4774    
  13      27.5417         27.5381         27.5310         27.5203         27.5061         27.4886         27.4676         27.4434         27.4161         27.3858    
          27.3526         27.3167         27.2784         27.2378         27.1953         27.1511         27.1055         27.0588         27.0113         26.9633    
          26.9150         26.8668         26.8187         26.7708         26.7231         26.6754         26.6275         26.5789         26.5291         26.4774    
  14      27.5417         27.5381         27.5310         27.5203         27.5061         27.4886         27.4676         27.4434         27.4161         27.3858    
          27.3526         27.3167         27.2784         27.2378         27.1953         27.1511         27.1055         27.0588         27.0113         26.9633    
          26.9150         26.8668         26.8187         26.7708         26.7231         26.6754         26.6275         26.5789         26.5291         26.4774    
  15      27.5417         27.5381         27.5310         27.5203         27.5061         27.4886         27.4676         27.4434         27.4161         27.3858    
          27.3526         27.3167         27.2784         27.2378         27.1953         27.1511         27.1055         27.0588         27.0113         26.9633    
          26.9150         26.8668         26.8187         26.7708         26.7231         26.6754         26.6275         26.5789         26.5291         26.4774    
  16      27.5417         27.5381         27.5310         27.5203         27.5061         27.4886         27.4676         27.4434         27.4161         27.3858    
          27.3526         27.3167         27.2784         27.2378         27.1953         27.1511         27.1055         27.0588         27.0113         26.9633    
          26.9150         26.8668         26.8187         26.7708         26.7231         26.6754         26.6275         26.5789         26.5291         26.4774    
  17      27.5417         27.5381         27.5310         27.5203         27.5062         27.4886         27.4676         27.4434         27.4161         27.3858    
          27.3526         27.3167         27.2784         27.2378         27.1953         27.1511         27.1055         27.0588         27.0113         26.9633    
          26.9150         26.8668         26.8187         26.7708         26.7231         26.6754         26.6275         26.5789         26.5291         26.4774    
  18      27.5417         27.5381         27.5310         27.5203         27.5062         27.4886         27.4676         27.4434         27.4161         27.3858    
          27.3526         27.3167         27.2784         27.2378         27.1953         27.1511         27.1055         27.0588         27.0113         26.9633    
          26.9150         26.8668         26.8187         26.7708         26.7231         26.6754         26.6275         26.5789         26.5291         26.4774    
  19      27.5417         27.5381         27.5310         27.5203         27.5062         27.4886         27.4676         27.4434         27.4161         27.3858    
          27.3526         27.3167         27.2784         27.2378         27.1953         27.1511         27.1055         27.0588         27.0113         26.9633    
          26.9150         26.8668         26.8187         26.7708         26.7231         26.6754         26.6275         26.5789         26.5291         26.4774    
  20      27.5417         27.5381         27.5310         27.5203         27.5062         27.4886         27.4676         27.4434         27.4161         27.3858    
          27.3526         27.3167         27.2784         27.2378         27.1953         27.1511         27.1055         27.0588         27.0113         26.9633    
          26.9150         26.8668         26.8187         26.7708         26.7231         26.6754         26.6275         26.5789         26.5291         26.4774    
  21      27.5417         27.5381         27.5310         27.5203         27.5062         27.4886         27.4676         27.4434         27.4161         27.3858    
          27.3526         27.3167         27.2784         27.2378         27.1953         27.1511         27.1055         27.0588         27.0113         26.9633    
          26.9150         26.8668         26.8187         26.7708         26.7231         26.6754         26.6275         26.5789         26.5291         26.4774    
  22      27.5417         27.5381         27.5310         27.5203         27.5062         27.4886         27.4676         27.4434         27.4161         27.3858    
          27.3526         27.3167         27.2784         27.2378         27.1953         27.1511         27.1055         27.0588         27.0113         26.9633    
          26.9150         26.8668         26.8187         26.7708         26.7231         26.6754         26.6275         26.5789         26.5291         26.4774    
  23      27.5417         27.5381         27.5310         27.5203         27.5062         27.4886         27.4676         27.4434         27.4161         27.3858    
          27.3526         27.3167         27.2784         27.2378         27.1953         27.1511         27.1055         27.0588         27.0113         26.9633    
          26.9150         26.8668         26.8187         26.7708         26.7231         26.6754         26.6275         26.5789         26.5291         26.4774    
  24      27.5417         27.5381         27.5310         27.5203         27.5062         27.4886         27.4676         27.4434         27.4161         27.3858    
          27.3526         27.3167         27.2784         27.2378         27.1953         27.1511         27.1055         27.0588         27.0113         26.9633    
          26.9150         26.8668         26.8187         26.7708         26.7231         26.6754         26.6275         26.5789         26.5291         26.4774    
  25      27.5417         27.5381         27.5310         27.5203         27.5062         27.4886         27.4676         27.4434         27.4161         27.3858    
          27.3526         27.3167         27.2784         27.2378         27.1953         27.1511         27.1055         27.0588         27.0113         26.9633    
          26.9150         26.8668         26.8187         26.7708         26.7231         26.6754         26.6275         26.5789         26.5291         26.4774    
  26      27.5417         27.5381         27.5310         27.5203         27.5062         27.4886         27.4676         27.4434         27.4161         27.3858    
          27.3526         27.3167         27.2784         27.2378         27.1953         27.1511         27.1055         27.0588         27.0113         26.9633    
          26.9150         26.8668         26.8187         26.7708         26.7231         26.6754         26.6275         26.5789         26.5291         26.4774    
  27      27.5417         27.5381         27.5310         27.5203         27.5062         27.4886         27.4676         27.4434         27.4161         27.3858    
          27.3526         27.3167         27.2784         27.2378         27.1953         27.1511         27.1055         27.0588         27.0113         26.9633    
          26.9150         26.8668         26.8187         26.7708         26.7231         26.6754         26.6275         26.5789         26.5291         26.4774    
  28      27.5417         27.5381         27.5310         27.5203         27.5062         27.4886         27.4676         27.4434         27.4161         27.3858    
          27.3526         27.3167         27.2784         27.2378         27.1953         27.1511         27.1055         27.0588         27.0113         26.9633    
          26.9150         26.8668         26.8187         26.7708         26.7231         26.6754         26.6275         26.5789         26.5291         26.4774    
  29      27.5417         27.5381         27.5310         27.5203         27.5062         27.4886         27.4676         27.4434         27.4161         27.3858    
          27.3526         27.3167         27.2784         27.2378         27.1953         27.1511         27.1055         27.0588         27.0113         26.9633    
          26.9150         26.8668         26.8187         26.7708         26.7231         26.6754         26.6275         26.5789         26.5291         26.4774    
  30      27.5417         27.5381         27.5310         27.5203         27.5062         27.4886         27.4676         27.4434         27.4161         27.3858    
          27.3526         27.3167         27.2784         27.2378         27.1953         27.1511         27.1055         27.0588         27.0113         26.9633    
          26.9150         26.8668         26.8187         26.7708         26.7231         26.6754         26.6275         26.5789         26.5291         26.4774    

 HEAD WILL BE SAVED ON UNIT 1019 AT END OF TIME STEP   10, STRESS PERIOD   19


  VOLUME BUDGET FOR ENTIRE MODEL AT END OF TIME STEP   10, STRESS PERIOD  19
  ---------------------------------------------------------------------------------------------------

     CUMULATIVE VOLUME      L**3       RATES FOR THIS TIME STEP      L**3/T          PACKAGE NAME    
     ------------------                 ------------------------                     ----------------

           IN:                                      IN:
           ---                                      ---
              STO-SS =          31.6014                STO-SS =       3.7432E-02     STORAGE         
              STO-SY =       20088.8314                STO-SY =          23.4213     STORAGE         
                 RCH =       86046.6114                   RCH =          47.6712     RCHA            
                 CHD =        1305.4009                   CHD =           0.0000     CHD             

            TOTAL IN =      107472.4451              TOTAL IN =          71.1300

          OUT:                                     OUT:
          ----                                     ----
              STO-SS =          25.0775                STO-SS =       3.7049E-02     STORAGE         
              STO-SY =       16469.3374                STO-SY =          24.1580     STORAGE         
                 RCH =           0.0000                   RCH =           0.0000     RCHA            
                 CHD =       90977.6362                   CHD =          46.9368     CHD             

           TOTAL OUT =      107472.0511             TOTAL OUT =          71.1318

            IN - OUT =           0.3940              IN - OUT =      -1.8593E-03

 PERCENT DISCREPANCY =           0.00     PERCENT DISCREPANCY =          -0.00




         TIME SUMMARY AT END OF TIME STEP   10 IN STRESS PERIOD   19
                    SECONDS     MINUTES      HOURS       DAYS        YEARS
                    -----------------------------------------------------------
   TIME STEP LENGTH 2.59200E+05  4320.0      72.000      3.0000     8.21355E-03
 STRESS PERIOD TIME 2.59200E+06  43200.      720.00      30.000     8.21355E-02
         TOTAL TIME 4.67424E+07 7.79040E+05  12984.      541.00      1.4812    

 OUTPUT CONTROL FOR STRESS PERIOD 20 IS REPEATED USING SETTINGS FROM A PREVIOUS STRESS PERIOD.


 STRESS PERIOD 20 IS TRANSIENT


                 RECHARGE =  0.1095890E-02
 UBDSV1 SAVING           STO-SS ON UNIT   1018 AT TIME STEP      1, STRESS PERIOD     20
 UBDSV1 SAVING           STO-SY ON UNIT   1018 AT TIME STEP      1, STRESS PERIOD     20
 UBDSV1 SAVING     FLOW-JA-FACE ON UNIT   1018 AT TIME STEP      1, STRESS PERIOD     20
 UBDSV06 SAVING              RCH IN MODEL TEST_TRANS       PACKAGE TEST_TRANS      CONNECTED TO MODEL TEST_TRANS       PACKAGE RCHA             ON UNIT   1018 AT TIME STEP      1, STRESS PERIOD     20
 UBDSV06 SAVING              CHD IN MODEL TEST_TRANS       PACKAGE TEST_TRANS      CONNECTED TO MODEL TEST_TRANS       PACKAGE CHD              ON UNIT   1018 AT TIME STEP      1, STRESS PERIOD     20
1
  HEAD IN LAYER   1 AT END OF TIME STEP   1 IN STRESS PERIOD   20
  ---------------------------------------------------------------------------

                1               2               3               4               5               6               7               8               9              10
               11              12              13              14              15              16              17              18              19              20
               21              22              23              24              25              26              27              28              29              30
 ................................................................................................................................................................
   1      27.5379         27.5344         27.5276         27.5173         27.5036         27.4867         27.4666         27.4433         27.4170         27.3878    
          27.3558         27.3213         27.2844         27.2452         27.2040         27.1610         27.1162         27.0700         27.0221         26.9727    
          26.9212         26.8670         26.8087         26.7441         26.6693         26.5777         26.4583         26.2914         26.0388         25.6157    
   2      27.5379         27.5344         27.5276         27.5173         27.5036         27.4867         27.4666         27.4433         27.4170         27.3878    
          27.3558         27.3213         27.2844         27.2452         27.2040         27.1610         27.1162         27.0700         27.0221         26.9727    
          26.9212         26.8670         26.8087         26.7441         26.6693         26.5777         26.4583         26.2914         26.0388         25.6157    
   3      27.5379         27.5344         27.5276         27.5173         27.5036         27.4867         27.4666         27.4433         27.4170         27.3878    
          27.3558         27.3213         27.2844         27.2452         27.2040         27.1610         27.1162         27.0700         27.0221         26.9727    
          26.9212         26.8670         26.8087         26.7441         26.6693         26.5777         26.4583         26.2914         26.0388         25.6157    
   4      27.5379         27.5344         27.5276         27.5173         27.5036         27.4867         27.4666         27.4433         27.4170         27.3878    
          27.3558         27.3213         27.2844         27.2452         27.2040         27.1610         27.1162         27.0700         27.0221         26.9727    
          26.9212         26.8670         26.8087         26.7441         26.6693         26.5777         26.4583         26.2914         26.0388         25.6157    
   5      27.5379         27.5344         27.5276         27.5173         27.5036         27.4867         27.4666         27.4433         27.4170         27.3878    
          27.3558         27.3213         27.2844         27.2452         27.2040         27.1610         27.1162         27.0700         27.0221         26.9727    
          26.9212         26.8670         26.8087         26.7441         26.6693         26.5777         26.4583         26.2914         26.0388         25.6157    
   6      27.5379         27.5344         27.5276         27.5173         27.5036         27.4867         27.4666         27.4433         27.4170         27.3878    
          27.3558         27.3213         27.2844         27.2452         27.2040         27.1610         27.1162         27.0700         27.0221         26.9727    
          26.9212         26.8670         26.8087         26.7441         26.6693         26.5777         26.4583         26.2914         26.0388         25.6157    
   7      27.5379         27.5344         27.5276         27.5173         27.5036         27.4867         27.4666         27.4433         27.4170         27.3878    
          27.3558         27.3213         27.2844         27.2452         27.2040         27.1610         27.1162         27.0700         27.0221         26.9727    
          26.9212         26.8670         26.8087         26.7441         26.6693         26.5777         26.4583         26.2914         26.0388         25.6157    
   8      27.5379         27.5344         27.5276         27.5173         27.5036         27.4867         27.4666         27.4433         27.4170         27.3878    
          27.3558         27.3213         27.2844         27.2452         27.2040         27.1610         27.1162         27.0700         27.0221         26.9727    
          26.9212         26.8670         26.8087         26.7441         26.6693         26.5777         26.4583         26.2914         26.0388         25.6157    
   9      27.5379         27.5344         27.5276         27.5173         27.5036         27.4867         27.4666         27.4433         27.4170         27.3878    
          27.3558         27.3213         27.2844         27.2452         27.2040         27.1610         27.1162         27.0700         27.0221         26.9727    
          26.9212         26.8670         26.8087         26.7441         26.6693         26.5777         26.4583         26.2914         26.0388         25.6157    
  10      27.5379         27.5344         27.5276         27.5173         27.5036         27.4867         27.4666         27.4433         27.4170         27.3878    
          27.3558         27.3213         27.2844         27.2452         27.2040         27.1610         27.1162         27.0700         27.0221         26.9727    
          26.9212         26.8670         26.8087         26.7441         26.6693         26.5777         26.4583         26.2914         26.0388         25.6157    
  11      27.5379         27.5344         27.5276         27.5173         27.5036         27.4867         27.4666         27.4433         27.4170         27.3878    
          27.3558         27.3213         27.2844         27.2452         27.2040         27.1610         27.1162         27.0700         27.0221         26.9727    
          26.9212         26.8670         26.8087         26.7441         26.6693         26.5777         26.4583         26.2914         26.0388         25.6157    
  12      27.5379         27.5344         27.5276         27.5173         27.5036         27.4867         27.4666         27.4433         27.4170         27.3878    
          27.3558         27.3213         27.2844         27.2452         27.2040         27.1610         27.1162         27.0700         27.0221         26.9727    
          26.9212         26.8670         26.8087         26.7441         26.6693         26.5777         26.4583         26.2914         26.0388         25.6157    
  13      27.5379         27.5344         27.5276         27.5173         27.5036         27.4867         27.4666         27.4433         27.4170         27.3878    
          27.3558         27.3213         27.2844         27.2452         27.2040         27.1610         27.1162         27.0700         27.0221         26.9727    
          26.9212         26.8670         26.8087         26.7441         26.6693         26.5777         26.4583         26.2914         26.0388         25.6157    
  14      27.5379         27.5344         27.5276         27.5173         27.5036         27.4867         27.4666         27.4433         27.4170         27.3878    
          27.3558         27.3213         27.2844         27.2452         27.2040         27.1610         27.1162         27.0700         27.0221         26.9727    
          26.9212         26.8670         26.8087         26.7441         26.6693         26.5777         26.4583         26.2914         26.0388         25.6157    
  15      27.5379         27.5344         27.5276         27.5173         27.5036         27.4867         27.4666         27.4433         27.4170         27.3878    
          27.3558         27.3213         27.2844         27.2452         27.2040         27.1610         27.1162         27.0700         27.0221         26.9727    
          26.9212         26.8670         26.8087         26.7441         26.6693         26.5777         26.4583         26.2914         26.0388         25.6157    
  16      27.5379         27.5344         27.5276         27.5173         27.5036         27.4867         27.4666         27.4433         27.4170         27.3878    
          27.3558         27.3213         27.2844         27.2452         27.2040         27.1610         27.1162         27.0700         27.0221         26.9727    
          26.9212         26.8670         26.8087         26.7441         26.6693         26.5777         26.4583         26.2914         26.0388         25.6157    
  17      27.5379         27.5344         27.5276         27.5173         27.5036         27.4867         27.4666         27.4433         27.4170         27.3878    
          27.3558         27.3213         27.2844         27.2452         27.2040         27.1610         27.1162         27.0700         27.0221         26.9727    
          26.9212         26.8670         26.8087         26.7441         26.6693         26.5777         26.4583         26.2914         26.0388         25.6157    
  18      27.5379         27.5344         27.5276         27.5173         27.5036         27.4867         27.4666         27.4433         27.4170         27.3878    
          27.3558         27.3213         27.2844         27.2452         27.2040         27.1610         27.1162         27.0700         27.0221         26.9727    
          26.9212         26.8670         26.8087         26.7441         26.6693         26.5777         26.4583         26.2914         26.0388         25.6157    
  19      27.5379         27.5344         27.5276         27.5173         27.5036         27.4867         27.4666         27.4433         27.4170         27.3878    
          27.3558         27.3213         27.2844         27.2452         27.2040         27.1610         27.1162         27.0700         27.0221         26.9727    
          26.9212         26.8670         26.8087         26.7441         26.6693         26.5777         26.4583         26.2914         26.0388         25.6157    
  20      27.5379         27.5344         27.5276         27.5173         27.5036         27.4867         27.4666         27.4433         27.4170         27.3878    
          27.3558         27.3213         27.2844         27.2452         27.2040         27.1610         27.1162         27.0700         27.0221         26.9727    
          26.9212         26.8670         26.8087         26.7441         26.6693         26.5777         26.4583         26.2914         26.0388         25.6157    
  21      27.5379         27.5344         27.5276         27.5173         27.5036         27.4867         27.4666         27.4433         27.4170         27.3878    
          27.3558         27.3213         27.2844         27.2452         27.2040         27.1610         27.1162         27.0700         27.0221         26.9727    
          26.9212         26.8670         26.8087         26.7441         26.6693         26.5777         26.4583         26.2914         26.0388         25.6157    
  22      27.5379         27.5344         27.5276         27.5173         27.5037         27.4867         27.4666         27.4433         27.4170         27.3878    
          27.3558         27.3213         27.2844         27.2452         27.2040         27.1610         27.1162         27.0700         27.0221         26.9727    
          26.9212         26.8670         26.8087         26.7441         26.6693         26.5777         26.4583         26.2914         26.0388         25.6157    
  23      27.5379         27.5344         27.5276         27.5173         27.5037         27.4867         27.4666         27.4433         27.4170         27.3878    
          27.3558         27.3213         27.2844         27.2452         27.2040         27.1610         27.1162         27.0700         27.0221         26.9727    
          26.9212         26.8670         26.8087         26.7441         26.6693         26.5777         26.4583         26.2914         26.0388         25.6157    
  24      27.5379         27.5344         27.5276         27.5173         27.5037         27.4867         27.4666         27.4433         27.4170         27.3878    
          27.3558         27.3213         27.2844         27.2452         27.2040         27.1610         27.1162         27.0700         27.0221         26.9727    
          26.9212         26.8670         26.8087         26.7441         26.6693         26.5777         26.4583         26.2914         26.0388         25.6157    
  25      27.5379         27.5344         27.5276         27.5173         27.5037         27.4867         27.4666         27.4433         27.4170         27.3878    
          27.3558         27.3213         27.2844         27.2452         27.2040         27.1610         27.1162         27.0700         27.0221         26.9727    
          26.9212         26.8670         26.8087         26.7441         26.6693         26.5777         26.4583         26.2914         26.0388         25.6157    
  26      27.5379         27.5344         27.5276         27.5173         27.5037         27.4867         27.4666         27.4433         27.4170         27.3878    
          27.3558         27.3213         27.2844         27.2452         27.2040         27.1610         27.1162         27.0700         27.0221         26.9727    
          26.9212         26.8670         26.8087         26.7441         26.6693         26.5777         26.4583         26.2914         26.0388         25.6157    
  27      27.5379         27.5344         27.5276         27.5173         27.5037         27.4867         27.4666         27.4433         27.4170         27.3878    
          27.3558         27.3213         27.2844         27.2452         27.2040         27.1610         27.1162         27.0700         27.0221         26.9727    
          26.9212         26.8670         26.8087         26.7441         26.6693         26.5777         26.4583         26.2914         26.0388         25.6157    
  28      27.5379         27.5344         27.5276         27.5173         27.5037         27.4867         27.4666         27.4433         27.4170         27.3878    
          27.3558         27.3213         27.2844         27.2452         27.2040         27.1610         27.1162         27.0700         27.0221         26.9727    
          26.9212         26.8670         26.8087         26.7441         26.6693         26.5777         26.4583         26.2914         26.0388         25.6157    
  29      27.5379         27.5344         27.5276         27.5173         27.5037         27.4867         27.4666         27.4433         27.4170         27.3878    
          27.3558         27.3213         27.2844         27.2452         27.2040         27.1610         27.1162         27.0700         27.0221         26.9727    
          26.9212         26.8670         26.8087         26.7441         26.6693         26.5777         26.4583         26.2914         26.0388         25.6157    
  30      27.5379         27.5344         27.5276         27.5173         27.5037         27.4867         27.4666         27.4433         27.4170         27.3878    
          27.3558         27.3213         27.2844         27.2452         27.2040         27.1610         27.1162         27.0700         27.0221         26.9727    
          26.9212         26.8670         26.8087         26.7441         26.6693         26.5777         26.4583         26.2914         26.0388         25.6157    

 HEAD WILL BE SAVED ON UNIT 1019 AT END OF TIME STEP    1, STRESS PERIOD   20



         TIME SUMMARY AT END OF TIME STEP    1 IN STRESS PERIOD   20
                    SECONDS     MINUTES      HOURS       DAYS        YEARS
                    -----------------------------------------------------------
   TIME STEP LENGTH 2.59200E+05  4320.0      72.000      3.0000     8.21355E-03
 STRESS PERIOD TIME 2.59200E+05  4320.0      72.000      3.0000     8.21355E-03
         TOTAL TIME 4.70016E+07 7.83360E+05  13056.      544.00      1.4894    
 UBDSV1 SAVING           STO-SS ON UNIT   1018 AT TIME STEP      2, STRESS PERIOD     20
 UBDSV1 SAVING           STO-SY ON UNIT   1018 AT TIME STEP      2, STRESS PERIOD     20
 UBDSV1 SAVING     FLOW-JA-FACE ON UNIT   1018 AT TIME STEP      2, STRESS PERIOD     20
 UBDSV06 SAVING              RCH IN MODEL TEST_TRANS       PACKAGE TEST_TRANS      CONNECTED TO MODEL TEST_TRANS       PACKAGE RCHA             ON UNIT   1018 AT TIME STEP      2, STRESS PERIOD     20
 UBDSV06 SAVING              CHD IN MODEL TEST_TRANS       PACKAGE TEST_TRANS      CONNECTED TO MODEL TEST_TRANS       PACKAGE CHD              ON UNIT   1018 AT TIME STEP      2, STRESS PERIOD     20

 HEAD WILL BE SAVED ON UNIT 1019 AT END OF TIME STEP    2, STRESS PERIOD   20
 UBDSV1 SAVING           STO-SS ON UNIT   1018 AT TIME STEP      3, STRESS PERIOD     20
 UBDSV1 SAVING           STO-SY ON UNIT   1018 AT TIME STEP      3, STRESS PERIOD     20
 UBDSV1 SAVING     FLOW-JA-FACE ON UNIT   1018 AT TIME STEP      3, STRESS PERIOD     20
 UBDSV06 SAVING              RCH IN MODEL TEST_TRANS       PACKAGE TEST_TRANS      CONNECTED TO MODEL TEST_TRANS       PACKAGE RCHA             ON UNIT   1018 AT TIME STEP      3, STRESS PERIOD     20
 UBDSV06 SAVING              CHD IN MODEL TEST_TRANS       PACKAGE TEST_TRANS      CONNECTED TO MODEL TEST_TRANS       PACKAGE CHD              ON UNIT   1018 AT TIME STEP      3, STRESS PERIOD     20

 HEAD WILL BE SAVED ON UNIT 1019 AT END OF TIME STEP    3, STRESS PERIOD   20
 UBDSV1 SAVING           STO-SS ON UNIT   1018 AT TIME STEP      4, STRESS PERIOD     20
 UBDSV1 SAVING           STO-SY ON UNIT   1018 AT TIME STEP      4, STRESS PERIOD     20
 UBDSV1 SAVING     FLOW-JA-FACE ON UNIT   1018 AT TIME STEP      4, STRESS PERIOD     20
 UBDSV06 SAVING              RCH IN MODEL TEST_TRANS       PACKAGE TEST_TRANS      CONNECTED TO MODEL TEST_TRANS       PACKAGE RCHA             ON UNIT   1018 AT TIME STEP      4, STRESS PERIOD     20
 UBDSV06 SAVING              CHD IN MODEL TEST_TRANS       PACKAGE TEST_TRANS      CONNECTED TO MODEL TEST_TRANS       PACKAGE CHD              ON UNIT   1018 AT TIME STEP      4, STRESS PERIOD     20

 HEAD WILL BE SAVED ON UNIT 1019 AT END OF TIME STEP    4, STRESS PERIOD   20
 UBDSV1 SAVING           STO-SS ON UNIT   1018 AT TIME STEP      5, STRESS PERIOD     20
 UBDSV1 SAVING           STO-SY ON UNIT   1018 AT TIME STEP      5, STRESS PERIOD     20
 UBDSV1 SAVING     FLOW-JA-FACE ON UNIT   1018 AT TIME STEP      5, STRESS PERIOD     20
 UBDSV06 SAVING              RCH IN MODEL TEST_TRANS       PACKAGE TEST_TRANS      CONNECTED TO MODEL TEST_TRANS       PACKAGE RCHA             ON UNIT   1018 AT TIME STEP      5, STRESS PERIOD     20
 UBDSV06 SAVING              CHD IN MODEL TEST_TRANS       PACKAGE TEST_TRANS      CONNECTED TO MODEL TEST_TRANS       PACKAGE CHD              ON UNIT   1018 AT TIME STEP      5, STRESS PERIOD     20

 HEAD WILL BE SAVED ON UNIT 1019 AT END OF TIME STEP    5, STRESS PERIOD   20
 UBDSV1 SAVING           STO-SS ON UNIT   1018 AT TIME STEP      6, STRESS PERIOD     20
 UBDSV1 SAVING           STO-SY ON UNIT   1018 AT TIME STEP      6, STRESS PERIOD     20
 UBDSV1 SAVING     FLOW-JA-FACE ON UNIT   1018 AT TIME STEP      6, STRESS PERIOD     20
 UBDSV06 SAVING              RCH IN MODEL TEST_TRANS       PACKAGE TEST_TRANS      CONNECTED TO MODEL TEST_TRANS       PACKAGE RCHA             ON UNIT   1018 AT TIME STEP      6, STRESS PERIOD     20
 UBDSV06 SAVING              CHD IN MODEL TEST_TRANS       PACKAGE TEST_TRANS      CONNECTED TO MODEL TEST_TRANS       PACKAGE CHD              ON UNIT   1018 AT TIME STEP      6, STRESS PERIOD     20

 HEAD WILL BE SAVED ON UNIT 1019 AT END OF TIME STEP    6, STRESS PERIOD   20
 UBDSV1 SAVING           STO-SS ON UNIT   1018 AT TIME STEP      7, STRESS PERIOD     20
 UBDSV1 SAVING           STO-SY ON UNIT   1018 AT TIME STEP      7, STRESS PERIOD     20
 UBDSV1 SAVING     FLOW-JA-FACE ON UNIT   1018 AT TIME STEP      7, STRESS PERIOD     20
 UBDSV06 SAVING              RCH IN MODEL TEST_TRANS       PACKAGE TEST_TRANS      CONNECTED TO MODEL TEST_TRANS       PACKAGE RCHA             ON UNIT   1018 AT TIME STEP      7, STRESS PERIOD     20
 UBDSV06 SAVING              CHD IN MODEL TEST_TRANS       PACKAGE TEST_TRANS      CONNECTED TO MODEL TEST_TRANS       PACKAGE CHD              ON UNIT   1018 AT TIME STEP      7, STRESS PERIOD     20

 HEAD WILL BE SAVED ON UNIT 1019 AT END OF TIME STEP    7, STRESS PERIOD   20
 UBDSV1 SAVING           STO-SS ON UNIT   1018 AT TIME STEP      8, STRESS PERIOD     20
 UBDSV1 SAVING           STO-SY ON UNIT   1018 AT TIME STEP      8, STRESS PERIOD     20
 UBDSV1 SAVING     FLOW-JA-FACE ON UNIT   1018 AT TIME STEP      8, STRESS PERIOD     20
 UBDSV06 SAVING              RCH IN MODEL TEST_TRANS       PACKAGE TEST_TRANS      CONNECTED TO MODEL TEST_TRANS       PACKAGE RCHA             ON UNIT   1018 AT TIME STEP      8, STRESS PERIOD     20
 UBDSV06 SAVING              CHD IN MODEL TEST_TRANS       PACKAGE TEST_TRANS      CONNECTED TO MODEL TEST_TRANS       PACKAGE CHD              ON UNIT   1018 AT TIME STEP      8, STRESS PERIOD     20

 HEAD WILL BE SAVED ON UNIT 1019 AT END OF TIME STEP    8, STRESS PERIOD   20
 UBDSV1 SAVING           STO-SS ON UNIT   1018 AT TIME STEP      9, STRESS PERIOD     20
 UBDSV1 SAVING           STO-SY ON UNIT   1018 AT TIME STEP      9, STRESS PERIOD     20
 UBDSV1 SAVING     FLOW-JA-FACE ON UNIT   1018 AT TIME STEP      9, STRESS PERIOD     20
 UBDSV06 SAVING              RCH IN MODEL TEST_TRANS       PACKAGE TEST_TRANS      CONNECTED TO MODEL TEST_TRANS       PACKAGE RCHA             ON UNIT   1018 AT TIME STEP      9, STRESS PERIOD     20
 UBDSV06 SAVING              CHD IN MODEL TEST_TRANS       PACKAGE TEST_TRANS      CONNECTED TO MODEL TEST_TRANS       PACKAGE CHD              ON UNIT   1018 AT TIME STEP      9, STRESS PERIOD     20

 HEAD WILL BE SAVED ON UNIT 1019 AT END OF TIME STEP    9, STRESS PERIOD   20
 UBDSV1 SAVING           STO-SS ON UNIT   1018 AT TIME STEP     10, STRESS PERIOD     20
 UBDSV1 SAVING           STO-SY ON UNIT   1018 AT TIME STEP     10, STRESS PERIOD     20
 UBDSV1 SAVING     FLOW-JA-FACE ON UNIT   1018 AT TIME STEP     10, STRESS PERIOD     20
 UBDSV06 SAVING              RCH IN MODEL TEST_TRANS       PACKAGE TEST_TRANS      CONNECTED TO MODEL TEST_TRANS       PACKAGE RCHA             ON UNIT   1018 AT TIME STEP     10, STRESS PERIOD     20
 UBDSV06 SAVING              CHD IN MODEL TEST_TRANS       PACKAGE TEST_TRANS      CONNECTED TO MODEL TEST_TRANS       PACKAGE CHD              ON UNIT   1018 AT TIME STEP     10, STRESS PERIOD     20
1
  HEAD IN LAYER   1 AT END OF TIME STEP  10 IN STRESS PERIOD   20
  ---------------------------------------------------------------------------

                1               2               3               4               5               6               7               8               9              10
               11              12              13              14              15              16              17              18              19              20
               21              22              23              24              25              26              27              28              29              30
 ................................................................................................................................................................
   1      27.5246         27.5216         27.5157         27.5067         27.4948         27.4797         27.4616         27.4403         27.4157         27.3877    
          27.3562         27.3211         27.2820         27.2389         27.1914         27.1393         27.0821         27.0195         26.9510         26.8761    
          26.7943         26.7049         26.6072         26.5005         26.3840         26.2568         26.1177         25.9656         25.7989         25.6157    
   2      27.5246         27.5216         27.5157         27.5067         27.4948         27.4797         27.4616         27.4403         27.4157         27.3877    
          27.3562         27.3211         27.2820         27.2389         27.1914         27.1393         27.0821         27.0195         26.9510         26.8761    
          26.7943         26.7049         26.6072         26.5005         26.3841         26.2568         26.1177         25.9656         25.7989         25.6157    
   3      27.5246         27.5216         27.5157         27.5067         27.4948         27.4797         27.4616         27.4403         27.4157         27.3877    
          27.3562         27.3211         27.2820         27.2389         27.1914         27.1393         27.0821         27.0195         26.9510         26.8761    
          26.7943         26.7049         26.6072         26.5005         26.3841         26.2568         26.1177         25.9656         25.7989         25.6157    
   4      27.5246         27.5216         27.5157         27.5067         27.4948         27.4797         27.4616         27.4403         27.4157         27.3877    
          27.3562         27.3211         27.2820         27.2389         27.1914         27.1393         27.0821         27.0195         26.9510         26.8761    
          26.7943         26.7049         26.6072         26.5005         26.3841         26.2568         26.1177         25.9656         25.7989         25.6157    
   5      27.5246         27.5216         27.5157         27.5067         27.4948         27.4797         27.4616         27.4403         27.4157         27.3877    
          27.3562         27.3211         27.2820         27.2389         27.1914         27.1393         27.0821         27.0195         26.9510         26.8761    
          26.7943         26.7049         26.6072         26.5005         26.3841         26.2568         26.1177         25.9656         25.7989         25.6157    
   6      27.5246         27.5216         27.5157         27.5067         27.4948         27.4797         27.4616         27.4403         27.4157         27.3877    
          27.3562         27.3211         27.2820         27.2389         27.1914         27.1393         27.0821         27.0195         26.9510         26.8761    
          26.7943         26.7049         26.6072         26.5005         26.3841         26.2568         26.1177         25.9656         25.7989         25.6157    
   7      27.5246         27.5216         27.5157         27.5067         27.4948         27.4797         27.4616         27.4403         27.4157         27.3877    
          27.3562         27.3211         27.2820         27.2389         27.1914         27.1393         27.0821         27.0195         26.9510         26.8761    
          26.7943         26.7049         26.6072         26.5005         26.3841         26.2568         26.1177         25.9656         25.7989         25.6157    
   8      27.5246         27.5216         27.5157         27.5067         27.4948         27.4797         27.4616         27.4403         27.4157         27.3877    
          27.3562         27.3211         27.2820         27.2389         27.1914         27.1393         27.0821         27.0195         26.9510         26.8761    
          26.7943         26.7049         26.6072         26.5005         26.3841         26.2568         26.1177         25.9656         25.7989         25.6157    
   9      27.5246         27.5216         27.5157         27.5067         27.4948         27.4797         27.4616         27.4403         27.4157         27.3877    
          27.3562         27.3211         27.2820         27.2389         27.1914         27.1393         27.0821         27.0195         26.9510         26.8761    
          26.7943         26.7049         26.6072         26.5005         26.3841         26.2568         26.1177         25.9656         25.7989         25.6157    
  10      27.5246         27.5216         27.5157         27.5067         27.4948         27.4797         27.4616         27.4403         27.4157         27.3877    
          27.3562         27.3211         27.2820         27.2389         27.1914         27.1393         27.0821         27.0195         26.9510         26.8761    
          26.7943         26.7049         26.6072         26.5005         26.3841         26.2568         26.1177         25.9656         25.7989         25.6157    
  11      27.5246         27.5216         27.5157         27.5067         27.4948         27.4797         27.4616         27.4403         27.4157         27.3877    
          27.3562         27.3211         27.2820         27.2389         27.1914         27.1393         27.0821         27.0195         26.9510         26.8761    
          26.7943         26.7049         26.6072         26.5005         26.3841         26.2568         26.1177         25.9656         25.7989         25.6157    
  12      27.5246         27.5216         27.5157         27.5067         27.4948         27.4797         27.4616         27.4403         27.4157         27.3877    
          27.3562         27.3211         27.2820         27.2389         27.1914         27.1393         27.0821         27.0195         26.9510         26.8761    
          26.7943         26.7049         26.6072         26.5005         26.3841         26.2568         26.1177         25.9656         25.7989         25.6157    
  13      27.5246         27.5216         27.5157         27.5067         27.4948         27.4797         27.4616         27.4403         27.4157         27.3877    
          27.3562         27.3211         27.2820         27.2389         27.1914         27.1393         27.0821         27.0195         26.9510         26.8761    
          26.7943         26.7049         26.6072         26.5005         26.3841         26.2568         26.1177         25.9656         25.7989         25.6157    
  14      27.5246         27.5216         27.5157         27.5067         27.4948         27.4797         27.4616         27.4403         27.4157         27.3877    
          27.3562         27.3211         27.2820         27.2389         27.1914         27.1393         27.0821         27.0195         26.9510         26.8761    
          26.7943         26.7049         26.6072         26.5005         26.3841         26.2568         26.1177         25.9656         25.7989         25.6157    
  15      27.5246         27.5216         27.5157         27.5067         27.4948         27.4797         27.4616         27.4403         27.4157         27.3877    
          27.3562         27.3211         27.2820         27.2389         27.1914         27.1393         27.0821         27.0195         26.9510         26.8761    
          26.7943         26.7049         26.6072         26.5005         26.3841         26.2568         26.1177         25.9656         25.7989         25.6157    
  16      27.5246         27.5216         27.5157         27.5067         27.4948         27.4797         27.4616         27.4403         27.4157         27.3877    
          27.3562         27.3211         27.2820         27.2389         27.1914         27.1393         27.0821         27.0195         26.9510         26.8761    
          26.7943         26.7049         26.6072         26.5005         26.3841         26.2568         26.1177         25.9656         25.7989         25.6157    
  17      27.5246         27.5216         27.5157         27.5067         27.4948         27.4797         27.4616         27.4403         27.4157         27.3877    
          27.3562         27.3211         27.2820         27.2389         27.1914         27.1393         27.0821         27.0195         26.9510         26.8761    
          26.7943         26.7049         26.6072         26.5005         26.3841         26.2568         26.1177         25.9656         25.7989         25.6157    
  18      27.5246         27.5216         27.5157         27.5067         27.4948         27.4797         27.4616         27.4403         27.4157         27.3877    
          27.3562         27.3211         27.2820         27.2389         27.1914         27.1393         27.0821         27.0195         26.9510         26.8761    
          26.7943         26.7049         26.6072         26.5005         26.3841         26.2568         26.1177         25.9656         25.7989         25.6157    
  19      27.5246         27.5216         27.5157         27.5067         27.4948         27.4797         27.4616         27.4403         27.4157         27.3877    
          27.3562         27.3211         27.2820         27.2389         27.1914         27.1393         27.0821         27.0195         26.9510         26.8761    
          26.7943         26.7049         26.6072         26.5005         26.3841         26.2568         26.1177         25.9656         25.7989         25.6157    
  20      27.5246         27.5216         27.5157         27.5067         27.4948         27.4797         27.4616         27.4403         27.4157         27.3877    
          27.3562         27.3211         27.2820         27.2389         27.1914         27.1393         27.0821         27.0195         26.9510         26.8761    
          26.7943         26.7049         26.6072         26.5005         26.3841         26.2568         26.1177         25.9656         25.7989         25.6157    
  21      27.5246         27.5216         27.5157         27.5067         27.4948         27.4797         27.4616         27.4403         27.4157         27.3877    
          27.3562         27.3211         27.2820         27.2389         27.1914         27.1393         27.0821         27.0195         26.9510         26.8761    
          26.7943         26.7049         26.6072         26.5005         26.3841         26.2568         26.1177         25.9656         25.7989         25.6157    
  22      27.5246         27.5216         27.5157         27.5067         27.4948         27.4797         27.4616         27.4403         27.4157         27.3877    
          27.3562         27.3211         27.2820         27.2389         27.1914         27.1393         27.0821         27.0195         26.9510         26.8761    
          26.7943         26.7049         26.6072         26.5005         26.3841         26.2568         26.1177         25.9656         25.7989         25.6157    
  23      27.5246         27.5216         27.5157         27.5067         27.4948         27.4797         27.4616         27.4403         27.4157         27.3877    
          27.3562         27.3211         27.2820         27.2389         27.1914         27.1393         27.0821         27.0195         26.9510         26.8761    
          26.7943         26.7049         26.6072         26.5005         26.3841         26.2568         26.1177         25.9656         25.7989         25.6157    
  24      27.5246         27.5216         27.5157         27.5067         27.4948         27.4797         27.4616         27.4403         27.4157         27.3877    
          27.3562         27.3211         27.2820         27.2389         27.1914         27.1393         27.0821         27.0195         26.9510         26.8761    
          26.7943         26.7049         26.6072         26.5005         26.3841         26.2568         26.1177         25.9656         25.7989         25.6157    
  25      27.5246         27.5216         27.5157         27.5067         27.4948         27.4797         27.4616         27.4403         27.4157         27.3877    
          27.3562         27.3211         27.2820         27.2389         27.1914         27.1393         27.0821         27.0195         26.9510         26.8761    
          26.7943         26.7049         26.6072         26.5005         26.3841         26.2568         26.1177         25.9656         25.7989         25.6157    
  26      27.5246         27.5216         27.5157         27.5067         27.4948         27.4797         27.4616         27.4403         27.4157         27.3877    
          27.3562         27.3211         27.2820         27.2389         27.1914         27.1393         27.0821         27.0195         26.9510         26.8761    
          26.7943         26.7049         26.6072         26.5005         26.3841         26.2568         26.1177         25.9656         25.7989         25.6157    
  27      27.5246         27.5216         27.5157         27.5067         27.4948         27.4797         27.4616         27.4403         27.4157         27.3877    
          27.3562         27.3211         27.2820         27.2389         27.1914         27.1393         27.0821         27.0195         26.9510         26.8761    
          26.7943         26.7049         26.6072         26.5005         26.3841         26.2568         26.1177         25.9656         25.7989         25.6157    
  28      27.5246         27.5216         27.5157         27.5067         27.4948         27.4797         27.4616         27.4403         27.4157         27.3877    
          27.3562         27.3211         27.2820         27.2389         27.1914         27.1393         27.0821         27.0195         26.9510         26.8761    
          26.7943         26.7049         26.6072         26.5005         26.3841         26.2568         26.1177         25.9656         25.7989         25.6157    
  29      27.5246         27.5216         27.5157         27.5067         27.4948         27.4797         27.4616         27.4403         27.4157         27.3877    
          27.3562         27.3211         27.2820         27.2389         27.1914         27.1393         27.0821         27.0195         26.9510         26.8761    
          26.7943         26.7049         26.6072         26.5005         26.3841         26.2568         26.1177         25.9656         25.7989         25.6157    
  30      27.5246         27.5216         27.5157         27.5067         27.4948         27.4797         27.4616         27.4403         27.4157         27.3877    
          27.3562         27.3211         27.2820         27.2389         27.1914         27.1393         27.0821         27.0195         26.9510         26.8761    
          26.7943         26.7049         26.6072         26.5005         26.3841         26.2568         26.1177         25.9656         25.7989         25.6157    

 HEAD WILL BE SAVED ON UNIT 1019 AT END OF TIME STEP   10, STRESS PERIOD   20


  VOLUME BUDGET FOR ENTIRE MODEL AT END OF TIME STEP   10, STRESS PERIOD  20
  ---------------------------------------------------------------------------------------------------

     CUMULATIVE VOLUME      L**3       RATES FOR THIS TIME STEP      L**3/T          PACKAGE NAME    
     ------------------                 ------------------------                     ----------------

           IN:                                      IN:
           ---                                      ---
              STO-SS =          35.0803                STO-SS =       5.0468E-02     STORAGE         
              STO-SY =       22406.3205                STO-SY =          33.0389     STORAGE         
                 RCH =       88906.8843                   RCH =          95.3424     RCHA            
                 CHD =        1305.4009                   CHD =           0.0000     CHD             

            TOTAL IN =      112653.6860              TOTAL IN =         128.4317

          OUT:                                     OUT:
          ----                                     ----
              STO-SS =          25.2505                STO-SS =           0.0000     STORAGE         
              STO-SY =       16579.5968                STO-SY =           0.0000     STORAGE         
                 RCH =           0.0000                   RCH =           0.0000     RCHA            
                 CHD =       96048.3517                   CHD =         128.4279     CHD             

           TOTAL OUT =      112653.1990             TOTAL OUT =         128.4279

            IN - OUT =           0.4870              IN - OUT =       3.8904E-03

 PERCENT DISCREPANCY =           0.00     PERCENT DISCREPANCY =           0.00




         TIME SUMMARY AT END OF TIME STEP   10 IN STRESS PERIOD   20
                    SECONDS     MINUTES      HOURS       DAYS        YEARS
                    -----------------------------------------------------------
   TIME STEP LENGTH 2.59200E+05  4320.0      72.000      3.0000     8.21355E-03
 STRESS PERIOD TIME 2.59200E+06  43200.      720.00      30.000     8.21355E-02
         TOTAL TIME 4.93344E+07 8.22240E+05  13704.      571.00      1.5633    

 OUTPUT CONTROL FOR STRESS PERIOD 21 IS REPEATED USING SETTINGS FROM A PREVIOUS STRESS PERIOD.


 STRESS PERIOD 21 IS TRANSIENT


                 RECHARGE =  0.1643840E-02
 UBDSV1 SAVING           STO-SS ON UNIT   1018 AT TIME STEP      1, STRESS PERIOD     21
 UBDSV1 SAVING           STO-SY ON UNIT   1018 AT TIME STEP      1, STRESS PERIOD     21
 UBDSV1 SAVING     FLOW-JA-FACE ON UNIT   1018 AT TIME STEP      1, STRESS PERIOD     21
 UBDSV06 SAVING              RCH IN MODEL TEST_TRANS       PACKAGE TEST_TRANS      CONNECTED TO MODEL TEST_TRANS       PACKAGE RCHA             ON UNIT   1018 AT TIME STEP      1, STRESS PERIOD     21
 UBDSV06 SAVING              CHD IN MODEL TEST_TRANS       PACKAGE TEST_TRANS      CONNECTED TO MODEL TEST_TRANS       PACKAGE CHD              ON UNIT   1018 AT TIME STEP      1, STRESS PERIOD     21
1
  HEAD IN LAYER   1 AT END OF TIME STEP   1 IN STRESS PERIOD   21
  ---------------------------------------------------------------------------

                1               2               3               4               5               6               7               8               9              10
               11              12              13              14              15              16              17              18              19              20
               21              22              23              24              25              26              27              28              29              30
 ................................................................................................................................................................
   1      27.5316         27.5286         27.5226         27.5136         27.5015         27.4864         27.4680         27.4464         27.4215         27.3931    
          27.3611         27.3254         27.2857         27.2418         27.1935         27.1403         27.0821         27.0182         26.9483         26.8716    
          26.7875         26.6948         26.5924         26.4782         26.3492         26.2007         26.0244         25.8047         25.5091         25.0550    
   2      27.5316         27.5286         27.5226         27.5136         27.5015         27.4864         27.4680         27.4464         27.4215         27.3931    
          27.3611         27.3254         27.2857         27.2418         27.1935         27.1403         27.0821         27.0182         26.9483         26.8716    
          26.7875         26.6948         26.5924         26.4782         26.3492         26.2007         26.0244         25.8047         25.5091         25.0550    
   3      27.5316         27.5286         27.5226         27.5136         27.5015         27.4864         27.4680         27.4464         27.4215         27.3931    
          27.3611         27.3254         27.2857         27.2418         27.1935         27.1403         27.0821         27.0182         26.9483         26.8716    
          26.7875         26.6948         26.5924         26.4782         26.3492         26.2007         26.0244         25.8047         25.5091         25.0550    
   4      27.5316         27.5286         27.5226         27.5136         27.5015         27.4864         27.4680         27.4464         27.4215         27.3931    
          27.3611         27.3254         27.2857         27.2418         27.1935         27.1403         27.0821         27.0182         26.9483         26.8716    
          26.7875         26.6948         26.5924         26.4782         26.3492         26.2007         26.0244         25.8047         25.5091         25.0550    
   5      27.5316         27.5286         27.5226         27.5136         27.5015         27.4864         27.4680         27.4464         27.4215         27.3931    
          27.3611         27.3254         27.2857         27.2418         27.1935         27.1403         27.0821         27.0182         26.9483         26.8716    
          26.7875         26.6948         26.5924         26.4782         26.3492         26.2007         26.0244         25.8047         25.5091         25.0550    
   6      27.5316         27.5286         27.5226         27.5136         27.5015         27.4864         27.4680         27.4464         27.4215         27.3931    
          27.3611         27.3254         27.2857         27.2418         27.1935         27.1403         27.0821         27.0182         26.9483         26.8716    
          26.7875         26.6948         26.5924         26.4782         26.3492         26.2007         26.0244         25.8047         25.5091         25.0550    
   7      27.5316         27.5286         27.5226         27.5136         27.5015         27.4864         27.4680         27.4464         27.4215         27.3931    
          27.3611         27.3254         27.2857         27.2418         27.1935         27.1403         27.0821         27.0182         26.9483         26.8716    
          26.7875         26.6948         26.5924         26.4782         26.3492         26.2007         26.0244         25.8047         25.5091         25.0550    
   8      27.5316         27.5286         27.5226         27.5136         27.5015         27.4864         27.4680         27.4464         27.4215         27.3931    
          27.3611         27.3254         27.2857         27.2418         27.1935         27.1403         27.0821         27.0182         26.9483         26.8716    
          26.7875         26.6948         26.5924         26.4782         26.3492         26.2007         26.0244         25.8047         25.5091         25.0550    
   9      27.5316         27.5286         27.5226         27.5136         27.5015         27.4864         27.4680         27.4464         27.4215         27.3931    
          27.3611         27.3254         27.2857         27.2418         27.1935         27.1403         27.0821         27.0182         26.9483         26.8716    
          26.7875         26.6948         26.5924         26.4782         26.3492         26.2007         26.0244         25.8047         25.5091         25.0550    
  10      27.5316         27.5286         27.5226         27.5136         27.5015         27.4864         27.4680         27.4464         27.4215         27.3931    
          27.3611         27.3254         27.2857         27.2418         27.1935         27.1403         27.0821         27.0182         26.9483         26.8716    
          26.7875         26.6948         26.5924         26.4782         26.3492         26.2007         26.0244         25.8047         25.5091         25.0550    
  11      27.5316         27.5286         27.5226         27.5136         27.5015         27.4864         27.4680         27.4464         27.4215         27.3931    
          27.3611         27.3254         27.2857         27.2418         27.1935         27.1403         27.0821         27.0182         26.9483         26.8716    
          26.7875         26.6948         26.5924         26.4782         26.3492         26.2007         26.0244         25.8047         25.5091         25.0550    
  12      27.5316         27.5286         27.5226         27.5136         27.5015         27.4864         27.4680         27.4464         27.4215         27.3931    
          27.3611         27.3254         27.2857         27.2418         27.1935         27.1403         27.0821         27.0182         26.9483         26.8716    
          26.7875         26.6948         26.5924         26.4782         26.3492         26.2007         26.0244         25.8047         25.5091         25.0550    
  13      27.5316         27.5286         27.5226         27.5136         27.5015         27.4864         27.4680         27.4464         27.4215         27.3931    
          27.3611         27.3254         27.2857         27.2418         27.1935         27.1403         27.0821         27.0182         26.9483         26.8716    
          26.7875         26.6948         26.5924         26.4782         26.3492         26.2007         26.0244         25.8047         25.5091         25.0550    
  14      27.5316         27.5286         27.5226         27.5136         27.5015         27.4864         27.4680         27.4464         27.4215         27.3931    
          27.3611         27.3254         27.2857         27.2418         27.1935         27.1403         27.0821         27.0182         26.9483         26.8716    
          26.7875         26.6948         26.5924         26.4782         26.3492         26.2007         26.0244         25.8047         25.5091         25.0550    
  15      27.5316         27.5286         27.5226         27.5136         27.5015         27.4864         27.4680         27.4464         27.4215         27.3931    
          27.3611         27.3254         27.2857         27.2418         27.1935         27.1403         27.0821         27.0182         26.9483         26.8716    
          26.7875         26.6948         26.5924         26.4782         26.3492         26.2007         26.0244         25.8047         25.5091         25.0550    
  16      27.5316         27.5286         27.5226         27.5136         27.5015         27.4864         27.4680         27.4464         27.4215         27.3931    
          27.3611         27.3254         27.2857         27.2418         27.1935         27.1403         27.0821         27.0182         26.9483         26.8716    
          26.7875         26.6948         26.5924         26.4782         26.3492         26.2007         26.0244         25.8047         25.5091         25.0550    
  17      27.5316         27.5286         27.5226         27.5136         27.5015         27.4864         27.4680         27.4464         27.4215         27.3931    
          27.3611         27.3254         27.2857         27.2418         27.1935         27.1403         27.0821         27.0182         26.9483         26.8716    
          26.7875         26.6948         26.5924         26.4782         26.3492         26.2007         26.0244         25.8047         25.5091         25.0550    
  18      27.5316         27.5286         27.5226         27.5136         27.5015         27.4864         27.4680         27.4464         27.4215         27.3931    
          27.3611         27.3254         27.2857         27.2418         27.1935         27.1403         27.0821         27.0182         26.9483         26.8716    
          26.7875         26.6948         26.5924         26.4782         26.3492         26.2007         26.0244         25.8047         25.5091         25.0550    
  19      27.5316         27.5286         27.5226         27.5136         27.5015         27.4864         27.4680         27.4464         27.4215         27.3931    
          27.3611         27.3254         27.2857         27.2418         27.1935         27.1403         27.0821         27.0182         26.9483         26.8716    
          26.7875         26.6948         26.5924         26.4782         26.3492         26.2007         26.0244         25.8047         25.5091         25.0550    
  20      27.5316         27.5286         27.5226         27.5136         27.5015         27.4864         27.4680         27.4464         27.4215         27.3931    
          27.3611         27.3254         27.2857         27.2418         27.1935         27.1403         27.0821         27.0182         26.9483         26.8716    
          26.7875         26.6948         26.5924         26.4782         26.3492         26.2007         26.0244         25.8047         25.5091         25.0550    
  21      27.5316         27.5286         27.5226         27.5136         27.5015         27.4864         27.4680         27.4464         27.4215         27.3931    
          27.3611         27.3254         27.2857         27.2418         27.1935         27.1403         27.0821         27.0182         26.9483         26.8716    
          26.7875         26.6948         26.5924         26.4782         26.3492         26.2007         26.0244         25.8047         25.5091         25.0550    
  22      27.5316         27.5286         27.5226         27.5136         27.5015         27.4864         27.4680         27.4464         27.4215         27.3931    
          27.3611         27.3254         27.2857         27.2418         27.1935         27.1403         27.0821         27.0182         26.9483         26.8716    
          26.7875         26.6948         26.5924         26.4782         26.3492         26.2007         26.0244         25.8047         25.5091         25.0550    
  23      27.5316         27.5286         27.5226         27.5136         27.5015         27.4864         27.4680         27.4464         27.4215         27.3931    
          27.3611         27.3254         27.2857         27.2418         27.1935         27.1403         27.0821         27.0182         26.9483         26.8716    
          26.7875         26.6948         26.5924         26.4782         26.3492         26.2007         26.0244         25.8047         25.5091         25.0550    
  24      27.5316         27.5286         27.5226         27.5136         27.5015         27.4864         27.4680         27.4464         27.4215         27.3931    
          27.3611         27.3254         27.2857         27.2418         27.1935         27.1403         27.0821         27.0182         26.9483         26.8716    
          26.7875         26.6948         26.5924         26.4782         26.3492         26.2007         26.0244         25.8047         25.5091         25.0550    
  25      27.5316         27.5286         27.5226         27.5136         27.5015         27.4864         27.4680         27.4464         27.4215         27.3931    
          27.3611         27.3254         27.2857         27.2418         27.1935         27.1403         27.0821         27.0182         26.9483         26.8716    
          26.7875         26.6948         26.5924         26.4782         26.3492         26.2007         26.0244         25.8047         25.5091         25.0550    
  26      27.5316         27.5286         27.5226         27.5136         27.5015         27.4864         27.4680         27.4464         27.4215         27.3931    
          27.3611         27.3254         27.2857         27.2418         27.1935         27.1403         27.0821         27.0182         26.9483         26.8716    
          26.7875         26.6948         26.5924         26.4782         26.3492         26.2007         26.0244         25.8047         25.5091         25.0550    
  27      27.5316         27.5286         27.5226         27.5136         27.5015         27.4864         27.4680         27.4464         27.4215         27.3931    
          27.3611         27.3254         27.2857         27.2418         27.1935         27.1403         27.0821         27.0182         26.9483         26.8716    
          26.7875         26.6948         26.5924         26.4782         26.3492         26.2007         26.0244         25.8047         25.5091         25.0550    
  28      27.5316         27.5286         27.5226         27.5136         27.5015         27.4864         27.4680         27.4464         27.4215         27.3931    
          27.3611         27.3254         27.2857         27.2418         27.1935         27.1403         27.0821         27.0182         26.9483         26.8716    
          26.7875         26.6948         26.5924         26.4782         26.3492         26.2007         26.0244         25.8047         25.5091         25.0550    
  29      27.5316         27.5286         27.5226         27.5136         27.5015         27.4864         27.4680         27.4464         27.4215         27.3931    
          27.3611         27.3254         27.2857         27.2418         27.1935         27.1403         27.0821         27.0182         26.9483         26.8716    
          26.7875         26.6948         26.5924         26.4782         26.3492         26.2007         26.0244         25.8047         25.5091         25.0550    
  30      27.5316         27.5286         27.5226         27.5136         27.5015         27.4864         27.4680         27.4464         27.4215         27.3931    
          27.3611         27.3254         27.2857         27.2418         27.1935         27.1403         27.0821         27.0182         26.9483         26.8716    
          26.7875         26.6948         26.5924         26.4782         26.3492         26.2007         26.0244         25.8047         25.5091         25.0550    

 HEAD WILL BE SAVED ON UNIT 1019 AT END OF TIME STEP    1, STRESS PERIOD   21



         TIME SUMMARY AT END OF TIME STEP    1 IN STRESS PERIOD   21
                    SECONDS     MINUTES      HOURS       DAYS        YEARS
                    -----------------------------------------------------------
   TIME STEP LENGTH 2.59200E+05  4320.0      72.000      3.0000     8.21355E-03
 STRESS PERIOD TIME 2.59200E+05  4320.0      72.000      3.0000     8.21355E-03
         TOTAL TIME 4.95936E+07 8.26560E+05  13776.      574.00      1.5715    
 UBDSV1 SAVING           STO-SS ON UNIT   1018 AT TIME STEP      2, STRESS PERIOD     21
 UBDSV1 SAVING           STO-SY ON UNIT   1018 AT TIME STEP      2, STRESS PERIOD     21
 UBDSV1 SAVING     FLOW-JA-FACE ON UNIT   1018 AT TIME STEP      2, STRESS PERIOD     21
 UBDSV06 SAVING              RCH IN MODEL TEST_TRANS       PACKAGE TEST_TRANS      CONNECTED TO MODEL TEST_TRANS       PACKAGE RCHA             ON UNIT   1018 AT TIME STEP      2, STRESS PERIOD     21
 UBDSV06 SAVING              CHD IN MODEL TEST_TRANS       PACKAGE TEST_TRANS      CONNECTED TO MODEL TEST_TRANS       PACKAGE CHD              ON UNIT   1018 AT TIME STEP      2, STRESS PERIOD     21

 HEAD WILL BE SAVED ON UNIT 1019 AT END OF TIME STEP    2, STRESS PERIOD   21
 UBDSV1 SAVING           STO-SS ON UNIT   1018 AT TIME STEP      3, STRESS PERIOD     21
 UBDSV1 SAVING           STO-SY ON UNIT   1018 AT TIME STEP      3, STRESS PERIOD     21
 UBDSV1 SAVING     FLOW-JA-FACE ON UNIT   1018 AT TIME STEP      3, STRESS PERIOD     21
 UBDSV06 SAVING              RCH IN MODEL TEST_TRANS       PACKAGE TEST_TRANS      CONNECTED TO MODEL TEST_TRANS       PACKAGE RCHA             ON UNIT   1018 AT TIME STEP      3, STRESS PERIOD     21
 UBDSV06 SAVING              CHD IN MODEL TEST_TRANS       PACKAGE TEST_TRANS      CONNECTED TO MODEL TEST_TRANS       PACKAGE CHD              ON UNIT   1018 AT TIME STEP      3, STRESS PERIOD     21

 HEAD WILL BE SAVED ON UNIT 1019 AT END OF TIME STEP    3, STRESS PERIOD   21
 UBDSV1 SAVING           STO-SS ON UNIT   1018 AT TIME STEP      4, STRESS PERIOD     21
 UBDSV1 SAVING           STO-SY ON UNIT   1018 AT TIME STEP      4, STRESS PERIOD     21
 UBDSV1 SAVING     FLOW-JA-FACE ON UNIT   1018 AT TIME STEP      4, STRESS PERIOD     21
 UBDSV06 SAVING              RCH IN MODEL TEST_TRANS       PACKAGE TEST_TRANS      CONNECTED TO MODEL TEST_TRANS       PACKAGE RCHA             ON UNIT   1018 AT TIME STEP      4, STRESS PERIOD     21
 UBDSV06 SAVING              CHD IN MODEL TEST_TRANS       PACKAGE TEST_TRANS      CONNECTED TO MODEL TEST_TRANS       PACKAGE CHD              ON UNIT   1018 AT TIME STEP      4, STRESS PERIOD     21

 HEAD WILL BE SAVED ON UNIT 1019 AT END OF TIME STEP    4, STRESS PERIOD   21
 UBDSV1 SAVING           STO-SS ON UNIT   1018 AT TIME STEP      5, STRESS PERIOD     21
 UBDSV1 SAVING           STO-SY ON UNIT   1018 AT TIME STEP      5, STRESS PERIOD     21
 UBDSV1 SAVING     FLOW-JA-FACE ON UNIT   1018 AT TIME STEP      5, STRESS PERIOD     21
 UBDSV06 SAVING              RCH IN MODEL TEST_TRANS       PACKAGE TEST_TRANS      CONNECTED TO MODEL TEST_TRANS       PACKAGE RCHA             ON UNIT   1018 AT TIME STEP      5, STRESS PERIOD     21
 UBDSV06 SAVING              CHD IN MODEL TEST_TRANS       PACKAGE TEST_TRANS      CONNECTED TO MODEL TEST_TRANS       PACKAGE CHD              ON UNIT   1018 AT TIME STEP      5, STRESS PERIOD     21

 HEAD WILL BE SAVED ON UNIT 1019 AT END OF TIME STEP    5, STRESS PERIOD   21
 UBDSV1 SAVING           STO-SS ON UNIT   1018 AT TIME STEP      6, STRESS PERIOD     21
 UBDSV1 SAVING           STO-SY ON UNIT   1018 AT TIME STEP      6, STRESS PERIOD     21
 UBDSV1 SAVING     FLOW-JA-FACE ON UNIT   1018 AT TIME STEP      6, STRESS PERIOD     21
 UBDSV06 SAVING              RCH IN MODEL TEST_TRANS       PACKAGE TEST_TRANS      CONNECTED TO MODEL TEST_TRANS       PACKAGE RCHA             ON UNIT   1018 AT TIME STEP      6, STRESS PERIOD     21
 UBDSV06 SAVING              CHD IN MODEL TEST_TRANS       PACKAGE TEST_TRANS      CONNECTED TO MODEL TEST_TRANS       PACKAGE CHD              ON UNIT   1018 AT TIME STEP      6, STRESS PERIOD     21

 HEAD WILL BE SAVED ON UNIT 1019 AT END OF TIME STEP    6, STRESS PERIOD   21
 UBDSV1 SAVING           STO-SS ON UNIT   1018 AT TIME STEP      7, STRESS PERIOD     21
 UBDSV1 SAVING           STO-SY ON UNIT   1018 AT TIME STEP      7, STRESS PERIOD     21
 UBDSV1 SAVING     FLOW-JA-FACE ON UNIT   1018 AT TIME STEP      7, STRESS PERIOD     21
 UBDSV06 SAVING              RCH IN MODEL TEST_TRANS       PACKAGE TEST_TRANS      CONNECTED TO MODEL TEST_TRANS       PACKAGE RCHA             ON UNIT   1018 AT TIME STEP      7, STRESS PERIOD     21
 UBDSV06 SAVING              CHD IN MODEL TEST_TRANS       PACKAGE TEST_TRANS      CONNECTED TO MODEL TEST_TRANS       PACKAGE CHD              ON UNIT   1018 AT TIME STEP      7, STRESS PERIOD     21

 HEAD WILL BE SAVED ON UNIT 1019 AT END OF TIME STEP    7, STRESS PERIOD   21
 UBDSV1 SAVING           STO-SS ON UNIT   1018 AT TIME STEP      8, STRESS PERIOD     21
 UBDSV1 SAVING           STO-SY ON UNIT   1018 AT TIME STEP      8, STRESS PERIOD     21
 UBDSV1 SAVING     FLOW-JA-FACE ON UNIT   1018 AT TIME STEP      8, STRESS PERIOD     21
 UBDSV06 SAVING              RCH IN MODEL TEST_TRANS       PACKAGE TEST_TRANS      CONNECTED TO MODEL TEST_TRANS       PACKAGE RCHA             ON UNIT   1018 AT TIME STEP      8, STRESS PERIOD     21
 UBDSV06 SAVING              CHD IN MODEL TEST_TRANS       PACKAGE TEST_TRANS      CONNECTED TO MODEL TEST_TRANS       PACKAGE CHD              ON UNIT   1018 AT TIME STEP      8, STRESS PERIOD     21

 HEAD WILL BE SAVED ON UNIT 1019 AT END OF TIME STEP    8, STRESS PERIOD   21
 UBDSV1 SAVING           STO-SS ON UNIT   1018 AT TIME STEP      9, STRESS PERIOD     21
 UBDSV1 SAVING           STO-SY ON UNIT   1018 AT TIME STEP      9, STRESS PERIOD     21
 UBDSV1 SAVING     FLOW-JA-FACE ON UNIT   1018 AT TIME STEP      9, STRESS PERIOD     21
 UBDSV06 SAVING              RCH IN MODEL TEST_TRANS       PACKAGE TEST_TRANS      CONNECTED TO MODEL TEST_TRANS       PACKAGE RCHA             ON UNIT   1018 AT TIME STEP      9, STRESS PERIOD     21
 UBDSV06 SAVING              CHD IN MODEL TEST_TRANS       PACKAGE TEST_TRANS      CONNECTED TO MODEL TEST_TRANS       PACKAGE CHD              ON UNIT   1018 AT TIME STEP      9, STRESS PERIOD     21

 HEAD WILL BE SAVED ON UNIT 1019 AT END OF TIME STEP    9, STRESS PERIOD   21
 UBDSV1 SAVING           STO-SS ON UNIT   1018 AT TIME STEP     10, STRESS PERIOD     21
 UBDSV1 SAVING           STO-SY ON UNIT   1018 AT TIME STEP     10, STRESS PERIOD     21
 UBDSV1 SAVING     FLOW-JA-FACE ON UNIT   1018 AT TIME STEP     10, STRESS PERIOD     21
 UBDSV06 SAVING              RCH IN MODEL TEST_TRANS       PACKAGE TEST_TRANS      CONNECTED TO MODEL TEST_TRANS       PACKAGE RCHA             ON UNIT   1018 AT TIME STEP     10, STRESS PERIOD     21
 UBDSV06 SAVING              CHD IN MODEL TEST_TRANS       PACKAGE TEST_TRANS      CONNECTED TO MODEL TEST_TRANS       PACKAGE CHD              ON UNIT   1018 AT TIME STEP     10, STRESS PERIOD     21
1
  HEAD IN LAYER   1 AT END OF TIME STEP  10 IN STRESS PERIOD   21
  ---------------------------------------------------------------------------

                1               2               3               4               5               6               7               8               9              10
               11              12              13              14              15              16              17              18              19              20
               21              22              23              24              25              26              27              28              29              30
 ................................................................................................................................................................
   1      27.5814         27.5779         27.5709         27.5604         27.5463         27.5285         27.5070         27.4815         27.4520         27.4182    
          27.3800         27.3371         27.2893         27.2361         27.1774         27.1125         27.0411         26.9627         26.8765         26.7819    
          26.6780         26.5639         26.4385         26.3002         26.1476         25.9783         25.7895         25.5773         25.3357         25.0550    
   2      27.5814         27.5779         27.5709         27.5604         27.5463         27.5285         27.5070         27.4815         27.4520         27.4182    
          27.3800         27.3371         27.2893         27.2361         27.1774         27.1125         27.0411         26.9627         26.8765         26.7819    
          26.6780         26.5639         26.4385         26.3002         26.1476         25.9783         25.7895         25.5773         25.3357         25.0550    
   3      27.5814         27.5779         27.5709         27.5604         27.5463         27.5285         27.5070         27.4815         27.4520         27.4182    
          27.3800         27.3371         27.2893         27.2361         27.1774         27.1125         27.0411         26.9627         26.8765         26.7819    
          26.6780         26.5639         26.4385         26.3002         26.1476         25.9783         25.7895         25.5773         25.3357         25.0550    
   4      27.5814         27.5779         27.5709         27.5604         27.5463         27.5285         27.5070         27.4815         27.4520         27.4182    
          27.3800         27.3371         27.2893         27.2361         27.1774         27.1125         27.0411         26.9627         26.8765         26.7819    
          26.6780         26.5639         26.4385         26.3002         26.1476         25.9783         25.7895         25.5773         25.3357         25.0550    
   5      27.5814         27.5779         27.5709         27.5604         27.5463         27.5285         27.5070         27.4815         27.4520         27.4182    
          27.3800         27.3371         27.2893         27.2361         27.1774         27.1125         27.0411         26.9627         26.8765         26.7819    
          26.6780         26.5639         26.4385         26.3002         26.1476         25.9783         25.7895         25.5773         25.3357         25.0550    
   6      27.5814         27.5779         27.5709         27.5604         27.5463         27.5285         27.5070         27.4815         27.4520         27.4182    
          27.3800         27.3371         27.2893         27.2361         27.1774         27.1125         27.0411         26.9627         26.8765         26.7819    
          26.6780         26.5639         26.4385         26.3002         26.1476         25.9783         25.7895         25.5773         25.3357         25.0550    
   7      27.5814         27.5779         27.5709         27.5604         27.5463         27.5285         27.5070         27.4815         27.4520         27.4182    
          27.3800         27.3371         27.2893         27.2361         27.1774         27.1125         27.0411         26.9627         26.8765         26.7819    
          26.6780         26.5639         26.4385         26.3002         26.1476         25.9783         25.7895         25.5773         25.3357         25.0550    
   8      27.5814         27.5779         27.5709         27.5604         27.5463         27.5285         27.5070         27.4815         27.4520         27.4182    
          27.3800         27.3371         27.2893         27.2361         27.1774         27.1125         27.0411         26.9627         26.8765         26.7819    
          26.6780         26.5639         26.4385         26.3002         26.1476         25.9783         25.7895         25.5773         25.3357         25.0550    
   9      27.5814         27.5779         27.5709         27.5604         27.5463         27.5285         27.5070         27.4815         27.4520         27.4182    
          27.3800         27.3371         27.2893         27.2361         27.1774         27.1125         27.0411         26.9627         26.8765         26.7819    
          26.6780         26.5639         26.4385         26.3002         26.1476         25.9783         25.7895         25.5773         25.3357         25.0550    
  10      27.5814         27.5779         27.5709         27.5604         27.5463         27.5285         27.5070         27.4815         27.4520         27.4182    
          27.3800         27.3371         27.2893         27.2361         27.1774         27.1125         27.0411         26.9627         26.8765         26.7819    
          26.6780         26.5639         26.4385         26.3002         26.1476         25.9783         25.7895         25.5773         25.3357         25.0550    
  11      27.5814         27.5779         27.5709         27.5604         27.5463         27.5285         27.5070         27.4815         27.4520         27.4182    
          27.3800         27.3371         27.2893         27.2361         27.1774         27.1125         27.0411         26.9627         26.8765         26.7819    
          26.6780         26.5639         26.4385         26.3002         26.1476         25.9783         25.7895         25.5773         25.3357         25.0550    
  12      27.5814         27.5779         27.5709         27.5604         27.5463         27.5285         27.5070         27.4815         27.4520         27.4182    
          27.3800         27.3371         27.2893         27.2361         27.1774         27.1125         27.0411         26.9627         26.8765         26.7819    
          26.6780         26.5639         26.4385         26.3002         26.1476         25.9783         25.7895         25.5773         25.3357         25.0550    
  13      27.5814         27.5779         27.5709         27.5604         27.5463         27.5285         27.5070         27.4815         27.4520         27.4182    
          27.3800         27.3371         27.2893         27.2361         27.1774         27.1125         27.0411         26.9627         26.8765         26.7819    
          26.6780         26.5639         26.4385         26.3002         26.1476         25.9783         25.7895         25.5773         25.3357         25.0550    
  14      27.5814         27.5779         27.5709         27.5604         27.5463         27.5285         27.5070         27.4815         27.4520         27.4182    
          27.3800         27.3371         27.2893         27.2361         27.1774         27.1125         27.0411         26.9627         26.8765         26.7819    
          26.6780         26.5639         26.4385         26.3002         26.1476         25.9783         25.7895         25.5773         25.3357         25.0550    
  15      27.5814         27.5779         27.5709         27.5604         27.5463         27.5285         27.5070         27.4815         27.4520         27.4182    
          27.3800         27.3371         27.2893         27.2361         27.1774         27.1125         27.0411         26.9627         26.8765         26.7819    
          26.6780         26.5639         26.4385         26.3002         26.1476         25.9783         25.7895         25.5773         25.3357         25.0550    
  16      27.5814         27.5779         27.5709         27.5604         27.5463         27.5285         27.5070         27.4815         27.4520         27.4182    
          27.3800         27.3371         27.2893         27.2361         27.1774         27.1125         27.0411         26.9627         26.8765         26.7819    
          26.6780         26.5639         26.4385         26.3002         26.1476         25.9783         25.7895         25.5773         25.3357         25.0550    
  17      27.5814         27.5779         27.5709         27.5604         27.5463         27.5285         27.5070         27.4815         27.4520         27.4182    
          27.3800         27.3371         27.2893         27.2361         27.1774         27.1125         27.0411         26.9627         26.8765         26.7819    
          26.6780         26.5639         26.4385         26.3002         26.1476         25.9783         25.7895         25.5773         25.3357         25.0550    
  18      27.5814         27.5779         27.5709         27.5604         27.5463         27.5285         27.5070         27.4815         27.4520         27.4182    
          27.3800         27.3371         27.2893         27.2361         27.1774         27.1125         27.0411         26.9627         26.8765         26.7819    
          26.6780         26.5639         26.4385         26.3002         26.1476         25.9783         25.7895         25.5773         25.3357         25.0550    
  19      27.5814         27.5779         27.5709         27.5604         27.5463         27.5285         27.5070         27.4815         27.4520         27.4182    
          27.3800         27.3371         27.2893         27.2361         27.1774         27.1125         27.0411         26.9627         26.8765         26.7819    
          26.6780         26.5639         26.4385         26.3002         26.1476         25.9783         25.7895         25.5773         25.3357         25.0550    
  20      27.5814         27.5779         27.5709         27.5604         27.5463         27.5285         27.5070         27.4815         27.4520         27.4182    
          27.3800         27.3371         27.2893         27.2361         27.1774         27.1125         27.0411         26.9627         26.8765         26.7819    
          26.6780         26.5639         26.4385         26.3002         26.1476         25.9783         25.7895         25.5773         25.3357         25.0550    
  21      27.5814         27.5779         27.5709         27.5604         27.5463         27.5285         27.5070         27.4815         27.4520         27.4182    
          27.3800         27.3371         27.2893         27.2361         27.1774         27.1125         27.0411         26.9627         26.8765         26.7819    
          26.6780         26.5639         26.4385         26.3002         26.1476         25.9783         25.7895         25.5773         25.3357         25.0550    
  22      27.5814         27.5779         27.5709         27.5604         27.5463         27.5285         27.5070         27.4815         27.4520         27.4182    
          27.3800         27.3371         27.2893         27.2361         27.1774         27.1125         27.0411         26.9627         26.8765         26.7819    
          26.6780         26.5639         26.4385         26.3002         26.1476         25.9783         25.7895         25.5773         25.3357         25.0550    
  23      27.5814         27.5779         27.5709         27.5604         27.5463         27.5285         27.5070         27.4815         27.4520         27.4182    
          27.3800         27.3371         27.2893         27.2361         27.1774         27.1125         27.0411         26.9627         26.8765         26.7819    
          26.6780         26.5639         26.4385         26.3002         26.1476         25.9783         25.7895         25.5773         25.3357         25.0550    
  24      27.5814         27.5779         27.5709         27.5604         27.5463         27.5285         27.5070         27.4815         27.4520         27.4182    
          27.3800         27.3371         27.2893         27.2361         27.1774         27.1125         27.0411         26.9627         26.8765         26.7819    
          26.6780         26.5639         26.4385         26.3002         26.1476         25.9783         25.7895         25.5773         25.3357         25.0550    
  25      27.5814         27.5779         27.5709         27.5604         27.5463         27.5285         27.5070         27.4815         27.4520         27.4182    
          27.3800         27.3371         27.2893         27.2361         27.1774         27.1125         27.0411         26.9627         26.8765         26.7819    
          26.6780         26.5639         26.4385         26.3002         26.1476         25.9783         25.7895         25.5773         25.3357         25.0550    
  26      27.5814         27.5779         27.5709         27.5604         27.5463         27.5285         27.5070         27.4815         27.4520         27.4182    
          27.3800         27.3371         27.2893         27.2361         27.1774         27.1125         27.0411         26.9627         26.8765         26.7819    
          26.6780         26.5639         26.4385         26.3002         26.1476         25.9783         25.7895         25.5773         25.3357         25.0550    
  27      27.5814         27.5779         27.5709         27.5604         27.5463         27.5285         27.5070         27.4815         27.4520         27.4182    
          27.3800         27.3371         27.2893         27.2361         27.1774         27.1125         27.0411         26.9627         26.8765         26.7819    
          26.6780         26.5639         26.4385         26.3002         26.1476         25.9783         25.7895         25.5773         25.3357         25.0550    
  28      27.5814         27.5779         27.5709         27.5604         27.5463         27.5285         27.5070         27.4815         27.4520         27.4182    
          27.3800         27.3371         27.2893         27.2361         27.1774         27.1125         27.0411         26.9627         26.8765         26.7819    
          26.6780         26.5639         26.4385         26.3002         26.1476         25.9783         25.7895         25.5773         25.3357         25.0550    
  29      27.5814         27.5779         27.5709         27.5604         27.5463         27.5285         27.5070         27.4815         27.4520         27.4182    
          27.3800         27.3371         27.2893         27.2361         27.1774         27.1125         27.0411         26.9627         26.8765         26.7819    
          26.6780         26.5639         26.4385         26.3002         26.1476         25.9783         25.7895         25.5773         25.3357         25.0550    
  30      27.5814         27.5779         27.5709         27.5604         27.5463         27.5285         27.5070         27.4815         27.4520         27.4182    
          27.3800         27.3371         27.2893         27.2361         27.1774         27.1125         27.0411         26.9627         26.8765         26.7819    
          26.6780         26.5639         26.4385         26.3002         26.1476         25.9783         25.7895         25.5773         25.3357         25.0550    

 HEAD WILL BE SAVED ON UNIT 1019 AT END OF TIME STEP   10, STRESS PERIOD   21


  VOLUME BUDGET FOR ENTIRE MODEL AT END OF TIME STEP   10, STRESS PERIOD  21
  ---------------------------------------------------------------------------------------------------

     CUMULATIVE VOLUME      L**3       RATES FOR THIS TIME STEP      L**3/T          PACKAGE NAME    
     ------------------                 ------------------------                     ----------------

           IN:                                      IN:
           ---                                      ---
              STO-SS =          37.4106                STO-SS =       3.2618E-02     STORAGE         
              STO-SY =       23994.7743                STO-SY =          21.7944     STORAGE         
                 RCH =       93197.3067                   RCH =         143.0141     RCHA            
                 CHD =        1305.4009                   CHD =           0.0000     CHD             

            TOTAL IN =      118534.8925              TOTAL IN =         164.8411

          OUT:                                     OUT:
          ----                                     ----
              STO-SS =          25.7674                STO-SS =       9.2844E-03     STORAGE         
              STO-SY =       16902.9965                STO-SY =           5.7888     STORAGE         
                 RCH =           0.0000                   RCH =           0.0000     RCHA            
                 CHD =      101605.5532                   CHD =         159.0387     CHD             

           TOTAL OUT =      118534.3171             TOTAL OUT =         164.8368

            IN - OUT =           0.5754              IN - OUT =       4.2330E-03

 PERCENT DISCREPANCY =           0.00     PERCENT DISCREPANCY =           0.00




         TIME SUMMARY AT END OF TIME STEP   10 IN STRESS PERIOD   21
                    SECONDS     MINUTES      HOURS       DAYS        YEARS
                    -----------------------------------------------------------
   TIME STEP LENGTH 2.59200E+05  4320.0      72.000      3.0000     8.21355E-03
 STRESS PERIOD TIME 2.59200E+06  43200.      720.00      30.000     8.21355E-02
         TOTAL TIME 5.19264E+07 8.65440E+05  14424.      601.00      1.6454    

 OUTPUT CONTROL FOR STRESS PERIOD 22 IS REPEATED USING SETTINGS FROM A PREVIOUS STRESS PERIOD.


 STRESS PERIOD 22 IS TRANSIENT


                 RECHARGE =  0.2191780E-02
 UBDSV1 SAVING           STO-SS ON UNIT   1018 AT TIME STEP      1, STRESS PERIOD     22
 UBDSV1 SAVING           STO-SY ON UNIT   1018 AT TIME STEP      1, STRESS PERIOD     22
 UBDSV1 SAVING     FLOW-JA-FACE ON UNIT   1018 AT TIME STEP      1, STRESS PERIOD     22
 UBDSV06 SAVING              RCH IN MODEL TEST_TRANS       PACKAGE TEST_TRANS      CONNECTED TO MODEL TEST_TRANS       PACKAGE RCHA             ON UNIT   1018 AT TIME STEP      1, STRESS PERIOD     22
 UBDSV06 SAVING              CHD IN MODEL TEST_TRANS       PACKAGE TEST_TRANS      CONNECTED TO MODEL TEST_TRANS       PACKAGE CHD              ON UNIT   1018 AT TIME STEP      1, STRESS PERIOD     22
1
  HEAD IN LAYER   1 AT END OF TIME STEP   1 IN STRESS PERIOD   22
  ---------------------------------------------------------------------------

                1               2               3               4               5               6               7               8               9              10
               11              12              13              14              15              16              17              18              19              20
               21              22              23              24              25              26              27              28              29              30
 ................................................................................................................................................................
   1      27.5932         27.5896         27.5825         27.5718         27.5574         27.5393         27.5173         27.4914         27.4613         27.4270    
          27.3881         27.3445         27.2959         27.2420         27.1824         27.1167         27.0444         26.9651         26.8781         26.7827    
          26.6782         26.5635         26.4376         26.2989         26.1458         25.9757         25.7855         25.5702         25.3215         25.0242    
   2      27.5932         27.5896         27.5825         27.5718         27.5574         27.5393         27.5173         27.4914         27.4613         27.4270    
          27.3881         27.3445         27.2959         27.2420         27.1824         27.1167         27.0444         26.9651         26.8781         26.7827    
          26.6782         26.5635         26.4376         26.2989         26.1458         25.9757         25.7855         25.5702         25.3215         25.0242    
   3      27.5932         27.5896         27.5825         27.5718         27.5574         27.5393         27.5173         27.4914         27.4613         27.4270    
          27.3881         27.3445         27.2959         27.2420         27.1824         27.1167         27.0444         26.9651         26.8781         26.7827    
          26.6782         26.5635         26.4376         26.2989         26.1458         25.9757         25.7855         25.5702         25.3215         25.0242    
   4      27.5932         27.5896         27.5825         27.5718         27.5574         27.5393         27.5173         27.4914         27.4613         27.4270    
          27.3881         27.3445         27.2959         27.2420         27.1824         27.1167         27.0444         26.9651         26.8781         26.7827    
          26.6782         26.5635         26.4376         26.2989         26.1458         25.9757         25.7855         25.5702         25.3215         25.0242    
   5      27.5932         27.5896         27.5825         27.5718         27.5574         27.5393         27.5173         27.4914         27.4613         27.4270    
          27.3881         27.3445         27.2959         27.2420         27.1824         27.1166         27.0444         26.9651         26.8781         26.7827    
          26.6782         26.5635         26.4376         26.2989         26.1458         25.9757         25.7855         25.5702         25.3215         25.0242    
   6      27.5932         27.5896         27.5825         27.5718         27.5574         27.5393         27.5173         27.4914         27.4613         27.4270    
          27.3881         27.3445         27.2959         27.2420         27.1824         27.1166         27.0444         26.9651         26.8781         26.7827    
          26.6782         26.5635         26.4376         26.2989         26.1458         25.9757         25.7855         25.5702         25.3215         25.0242    
   7      27.5932         27.5896         27.5825         27.5718         27.5574         27.5393         27.5173         27.4914         27.4613         27.4270    
          27.3881         27.3445         27.2959         27.2420         27.1824         27.1166         27.0444         26.9651         26.8781         26.7827    
          26.6782         26.5635         26.4376         26.2989         26.1458         25.9757         25.7855         25.5702         25.3215         25.0242    
   8      27.5932         27.5896         27.5825         27.5718         27.5574         27.5393         27.5173         27.4914         27.4613         27.4270    
          27.3881         27.3445         27.2959         27.2420         27.1824         27.1166         27.0444         26.9651         26.8781         26.7827    
          26.6782         26.5635         26.4376         26.2989         26.1458         25.9757         25.7855         25.5702         25.3215         25.0242    
   9      27.5932         27.5896         27.5825         27.5718         27.5574         27.5393         27.5173         27.4914         27.4613         27.4270    
          27.3881         27.3445         27.2959         27.2420         27.1824         27.1166         27.0444         26.9651         26.8781         26.7827    
          26.6782         26.5635         26.4376         26.2989         26.1458         25.9757         25.7855         25.5702         25.3215         25.0242    
  10      27.5932         27.5896         27.5825         27.5718         27.5574         27.5393         27.5173         27.4914         27.4613         27.4270    
          27.3881         27.3445         27.2959         27.2420         27.1824         27.1166         27.0444         26.9651         26.8781         26.7827    
          26.6782         26.5635         26.4376         26.2989         26.1458         25.9757         25.7855         25.5702         25.3215         25.0242    
  11      27.5932         27.5896         27.5825         27.5718         27.5574         27.5393         27.5173         27.4914         27.4613         27.4270    
          27.3881         27.3445         27.2959         27.2420         27.1824         27.1166         27.0444         26.9651         26.8781         26.7827    
          26.6782         26.5635         26.4376         26.2989         26.1458         25.9757         25.7855         25.5702         25.3215         25.0242    
  12      27.5932         27.5896         27.5825         27.5718         27.5574         27.5393         27.5173         27.4914         27.4613         27.4270    
          27.3881         27.3445         27.2959         27.2420         27.1824         27.1166         27.0444         26.9651         26.8781         26.7827    
          26.6782         26.5635         26.4376         26.2989         26.1458         25.9757         25.7855         25.5702         25.3215         25.0242    
  13      27.5932         27.5896         27.5825         27.5718         27.5574         27.5393         27.5173         27.4914         27.4613         27.4270    
          27.3881         27.3445         27.2959         27.2420         27.1824         27.1166         27.0444         26.9651         26.8781         26.7827    
          26.6782         26.5635         26.4376         26.2989         26.1458         25.9757         25.7855         25.5702         25.3215         25.0242    
  14      27.5932         27.5896         27.5825         27.5718         27.5574         27.5393         27.5173         27.4914         27.4613         27.4270    
          27.3881         27.3445         27.2959         27.2420         27.1824         27.1166         27.0444         26.9651         26.8781         26.7827    
          26.6782         26.5635         26.4376         26.2989         26.1458         25.9757         25.7855         25.5702         25.3215         25.0242    
  15      27.5932         27.5896         27.5825         27.5718         27.5574         27.5393         27.5173         27.4914         27.4613         27.4270    
          27.3881         27.3445         27.2959         27.2420         27.1824         27.1166         27.0444         26.9651         26.8781         26.7827    
          26.6782         26.5635         26.4376         26.2989         26.1458         25.9757         25.7855         25.5702         25.3215         25.0242    
  16      27.5932         27.5896         27.5825         27.5718         27.5574         27.5393         27.5173         27.4914         27.4613         27.4270    
          27.3881         27.3445         27.2959         27.2420         27.1824         27.1166         27.0444         26.9651         26.8781         26.7827    
          26.6782         26.5635         26.4376         26.2989         26.1458         25.9757         25.7855         25.5702         25.3215         25.0242    
  17      27.5932         27.5896         27.5825         27.5718         27.5574         27.5393         27.5173         27.4914         27.4613         27.4270    
          27.3881         27.3445         27.2959         27.2420         27.1823         27.1166         27.0444         26.9651         26.8781         26.7827    
          26.6782         26.5635         26.4376         26.2989         26.1458         25.9757         25.7855         25.5702         25.3215         25.0242    
  18      27.5932         27.5896         27.5825         27.5718         27.5574         27.5393         27.5173         27.4914         27.4613         27.4270    
          27.3881         27.3445         27.2959         27.2420         27.1823         27.1166         27.0444         26.9651         26.8781         26.7827    
          26.6782         26.5635         26.4376         26.2989         26.1458         25.9757         25.7855         25.5702         25.3215         25.0242    
  19      27.5932         27.5896         27.5825         27.5718         27.5574         27.5393         27.5173         27.4914         27.4613         27.4270    
          27.3881         27.3445         27.2959         27.2420         27.1823         27.1166         27.0444         26.9651         26.8781         26.7827    
          26.6782         26.5635         26.4376         26.2989         26.1458         25.9757         25.7855         25.5702         25.3215         25.0242    
  20      27.5932         27.5896         27.5825         27.5718         27.5574         27.5393         27.5173         27.4914         27.4613         27.4270    
          27.3881         27.3445         27.2959         27.2420         27.1823         27.1166         27.0444         26.9651         26.8781         26.7827    
          26.6782         26.5635         26.4376         26.2989         26.1458         25.9757         25.7855         25.5702         25.3215         25.0242    
  21      27.5932         27.5896         27.5825         27.5718         27.5574         27.5393         27.5173         27.4914         27.4613         27.4270    
          27.3881         27.3445         27.2959         27.2420         27.1823         27.1166         27.0444         26.9651         26.8781         26.7827    
          26.6782         26.5635         26.4376         26.2989         26.1458         25.9757         25.7855         25.5702         25.3215         25.0242    
  22      27.5932         27.5896         27.5825         27.5718         27.5574         27.5393         27.5173         27.4914         27.4613         27.4270    
          27.3881         27.3445         27.2959         27.2420         27.1823         27.1166         27.0444         26.9651         26.8781         26.7827    
          26.6782         26.5635         26.4376         26.2989         26.1458         25.9757         25.7855         25.5702         25.3215         25.0242    
  23      27.5932         27.5896         27.5825         27.5718         27.5574         27.5393         27.5173         27.4914         27.4613         27.4270    
          27.3881         27.3445         27.2959         27.2420         27.1823         27.1166         27.0444         26.9651         26.8781         26.7827    
          26.6782         26.5635         26.4376         26.2989         26.1458         25.9757         25.7855         25.5702         25.3215         25.0242    
  24      27.5932         27.5896         27.5825         27.5718         27.5574         27.5393         27.5173         27.4914         27.4613         27.4270    
          27.3881         27.3445         27.2959         27.2420         27.1823         27.1166         27.0444         26.9651         26.8781         26.7827    
          26.6782         26.5635         26.4376         26.2989         26.1458         25.9757         25.7855         25.5702         25.3215         25.0242    
  25      27.5932         27.5896         27.5825         27.5718         27.5574         27.5393         27.5173         27.4914         27.4613         27.4270    
          27.3881         27.3445         27.2959         27.2420         27.1823         27.1166         27.0444         26.9651         26.8781         26.7827    
          26.6782         26.5635         26.4376         26.2989         26.1458         25.9757         25.7855         25.5702         25.3215         25.0242    
  26      27.5932         27.5896         27.5825         27.5718         27.5574         27.5393         27.5173         27.4914         27.4613         27.4270    
          27.3881         27.3445         27.2959         27.2420         27.1823         27.1166         27.0444         26.9651         26.8781         26.7827    
          26.6782         26.5635         26.4376         26.2989         26.1458         25.9757         25.7855         25.5702         25.3215         25.0242    
  27      27.5932         27.5896         27.5825         27.5718         27.5574         27.5393         27.5173         27.4914         27.4613         27.4270    
          27.3881         27.3445         27.2959         27.2420         27.1823         27.1166         27.0444         26.9651         26.8781         26.7827    
          26.6782         26.5635         26.4376         26.2989         26.1458         25.9757         25.7855         25.5702         25.3215         25.0242    
  28      27.5932         27.5896         27.5825         27.5718         27.5574         27.5393         27.5173         27.4914         27.4613         27.4270    
          27.3881         27.3445         27.2959         27.2420         27.1823         27.1166         27.0444         26.9651         26.8781         26.7827    
          26.6782         26.5635         26.4376         26.2989         26.1458         25.9757         25.7855         25.5702         25.3215         25.0242    
  29      27.5932         27.5896         27.5825         27.5718         27.5574         27.5393         27.5173         27.4914         27.4613         27.4270    
          27.3881         27.3445         27.2959         27.2420         27.1823         27.1166         27.0444         26.9651         26.8781         26.7827    
          26.6782         26.5635         26.4376         26.2989         26.1458         25.9757         25.7855         25.5702         25.3215         25.0242    
  30      27.5932         27.5896         27.5825         27.5718         27.5574         27.5393         27.5173         27.4914         27.4613         27.4270    
          27.3881         27.3445         27.2959         27.2420         27.1823         27.1166         27.0444         26.9651         26.8781         26.7827    
          26.6782         26.5635         26.4376         26.2989         26.1458         25.9757         25.7855         25.5702         25.3215         25.0242    

 HEAD WILL BE SAVED ON UNIT 1019 AT END OF TIME STEP    1, STRESS PERIOD   22



         TIME SUMMARY AT END OF TIME STEP    1 IN STRESS PERIOD   22
                    SECONDS     MINUTES      HOURS       DAYS        YEARS
                    -----------------------------------------------------------
   TIME STEP LENGTH 2.59200E+05  4320.0      72.000      3.0000     8.21355E-03
 STRESS PERIOD TIME 2.59200E+05  4320.0      72.000      3.0000     8.21355E-03
         TOTAL TIME 5.21856E+07 8.69760E+05  14496.      604.00      1.6537    
 UBDSV1 SAVING           STO-SS ON UNIT   1018 AT TIME STEP      2, STRESS PERIOD     22
 UBDSV1 SAVING           STO-SY ON UNIT   1018 AT TIME STEP      2, STRESS PERIOD     22
 UBDSV1 SAVING     FLOW-JA-FACE ON UNIT   1018 AT TIME STEP      2, STRESS PERIOD     22
 UBDSV06 SAVING              RCH IN MODEL TEST_TRANS       PACKAGE TEST_TRANS      CONNECTED TO MODEL TEST_TRANS       PACKAGE RCHA             ON UNIT   1018 AT TIME STEP      2, STRESS PERIOD     22
 UBDSV06 SAVING              CHD IN MODEL TEST_TRANS       PACKAGE TEST_TRANS      CONNECTED TO MODEL TEST_TRANS       PACKAGE CHD              ON UNIT   1018 AT TIME STEP      2, STRESS PERIOD     22

 HEAD WILL BE SAVED ON UNIT 1019 AT END OF TIME STEP    2, STRESS PERIOD   22
 UBDSV1 SAVING           STO-SS ON UNIT   1018 AT TIME STEP      3, STRESS PERIOD     22
 UBDSV1 SAVING           STO-SY ON UNIT   1018 AT TIME STEP      3, STRESS PERIOD     22
 UBDSV1 SAVING     FLOW-JA-FACE ON UNIT   1018 AT TIME STEP      3, STRESS PERIOD     22
 UBDSV06 SAVING              RCH IN MODEL TEST_TRANS       PACKAGE TEST_TRANS      CONNECTED TO MODEL TEST_TRANS       PACKAGE RCHA             ON UNIT   1018 AT TIME STEP      3, STRESS PERIOD     22
 UBDSV06 SAVING              CHD IN MODEL TEST_TRANS       PACKAGE TEST_TRANS      CONNECTED TO MODEL TEST_TRANS       PACKAGE CHD              ON UNIT   1018 AT TIME STEP      3, STRESS PERIOD     22

 HEAD WILL BE SAVED ON UNIT 1019 AT END OF TIME STEP    3, STRESS PERIOD   22
 UBDSV1 SAVING           STO-SS ON UNIT   1018 AT TIME STEP      4, STRESS PERIOD     22
 UBDSV1 SAVING           STO-SY ON UNIT   1018 AT TIME STEP      4, STRESS PERIOD     22
 UBDSV1 SAVING     FLOW-JA-FACE ON UNIT   1018 AT TIME STEP      4, STRESS PERIOD     22
 UBDSV06 SAVING              RCH IN MODEL TEST_TRANS       PACKAGE TEST_TRANS      CONNECTED TO MODEL TEST_TRANS       PACKAGE RCHA             ON UNIT   1018 AT TIME STEP      4, STRESS PERIOD     22
 UBDSV06 SAVING              CHD IN MODEL TEST_TRANS       PACKAGE TEST_TRANS      CONNECTED TO MODEL TEST_TRANS       PACKAGE CHD              ON UNIT   1018 AT TIME STEP      4, STRESS PERIOD     22

 HEAD WILL BE SAVED ON UNIT 1019 AT END OF TIME STEP    4, STRESS PERIOD   22
 UBDSV1 SAVING           STO-SS ON UNIT   1018 AT TIME STEP      5, STRESS PERIOD     22
 UBDSV1 SAVING           STO-SY ON UNIT   1018 AT TIME STEP      5, STRESS PERIOD     22
 UBDSV1 SAVING     FLOW-JA-FACE ON UNIT   1018 AT TIME STEP      5, STRESS PERIOD     22
 UBDSV06 SAVING              RCH IN MODEL TEST_TRANS       PACKAGE TEST_TRANS      CONNECTED TO MODEL TEST_TRANS       PACKAGE RCHA             ON UNIT   1018 AT TIME STEP      5, STRESS PERIOD     22
 UBDSV06 SAVING              CHD IN MODEL TEST_TRANS       PACKAGE TEST_TRANS      CONNECTED TO MODEL TEST_TRANS       PACKAGE CHD              ON UNIT   1018 AT TIME STEP      5, STRESS PERIOD     22

 HEAD WILL BE SAVED ON UNIT 1019 AT END OF TIME STEP    5, STRESS PERIOD   22
 UBDSV1 SAVING           STO-SS ON UNIT   1018 AT TIME STEP      6, STRESS PERIOD     22
 UBDSV1 SAVING           STO-SY ON UNIT   1018 AT TIME STEP      6, STRESS PERIOD     22
 UBDSV1 SAVING     FLOW-JA-FACE ON UNIT   1018 AT TIME STEP      6, STRESS PERIOD     22
 UBDSV06 SAVING              RCH IN MODEL TEST_TRANS       PACKAGE TEST_TRANS      CONNECTED TO MODEL TEST_TRANS       PACKAGE RCHA             ON UNIT   1018 AT TIME STEP      6, STRESS PERIOD     22
 UBDSV06 SAVING              CHD IN MODEL TEST_TRANS       PACKAGE TEST_TRANS      CONNECTED TO MODEL TEST_TRANS       PACKAGE CHD              ON UNIT   1018 AT TIME STEP      6, STRESS PERIOD     22

 HEAD WILL BE SAVED ON UNIT 1019 AT END OF TIME STEP    6, STRESS PERIOD   22
 UBDSV1 SAVING           STO-SS ON UNIT   1018 AT TIME STEP      7, STRESS PERIOD     22
 UBDSV1 SAVING           STO-SY ON UNIT   1018 AT TIME STEP      7, STRESS PERIOD     22
 UBDSV1 SAVING     FLOW-JA-FACE ON UNIT   1018 AT TIME STEP      7, STRESS PERIOD     22
 UBDSV06 SAVING              RCH IN MODEL TEST_TRANS       PACKAGE TEST_TRANS      CONNECTED TO MODEL TEST_TRANS       PACKAGE RCHA             ON UNIT   1018 AT TIME STEP      7, STRESS PERIOD     22
 UBDSV06 SAVING              CHD IN MODEL TEST_TRANS       PACKAGE TEST_TRANS      CONNECTED TO MODEL TEST_TRANS       PACKAGE CHD              ON UNIT   1018 AT TIME STEP      7, STRESS PERIOD     22

 HEAD WILL BE SAVED ON UNIT 1019 AT END OF TIME STEP    7, STRESS PERIOD   22
 UBDSV1 SAVING           STO-SS ON UNIT   1018 AT TIME STEP      8, STRESS PERIOD     22
 UBDSV1 SAVING           STO-SY ON UNIT   1018 AT TIME STEP      8, STRESS PERIOD     22
 UBDSV1 SAVING     FLOW-JA-FACE ON UNIT   1018 AT TIME STEP      8, STRESS PERIOD     22
 UBDSV06 SAVING              RCH IN MODEL TEST_TRANS       PACKAGE TEST_TRANS      CONNECTED TO MODEL TEST_TRANS       PACKAGE RCHA             ON UNIT   1018 AT TIME STEP      8, STRESS PERIOD     22
 UBDSV06 SAVING              CHD IN MODEL TEST_TRANS       PACKAGE TEST_TRANS      CONNECTED TO MODEL TEST_TRANS       PACKAGE CHD              ON UNIT   1018 AT TIME STEP      8, STRESS PERIOD     22

 HEAD WILL BE SAVED ON UNIT 1019 AT END OF TIME STEP    8, STRESS PERIOD   22
 UBDSV1 SAVING           STO-SS ON UNIT   1018 AT TIME STEP      9, STRESS PERIOD     22
 UBDSV1 SAVING           STO-SY ON UNIT   1018 AT TIME STEP      9, STRESS PERIOD     22
 UBDSV1 SAVING     FLOW-JA-FACE ON UNIT   1018 AT TIME STEP      9, STRESS PERIOD     22
 UBDSV06 SAVING              RCH IN MODEL TEST_TRANS       PACKAGE TEST_TRANS      CONNECTED TO MODEL TEST_TRANS       PACKAGE RCHA             ON UNIT   1018 AT TIME STEP      9, STRESS PERIOD     22
 UBDSV06 SAVING              CHD IN MODEL TEST_TRANS       PACKAGE TEST_TRANS      CONNECTED TO MODEL TEST_TRANS       PACKAGE CHD              ON UNIT   1018 AT TIME STEP      9, STRESS PERIOD     22

 HEAD WILL BE SAVED ON UNIT 1019 AT END OF TIME STEP    9, STRESS PERIOD   22
 UBDSV1 SAVING           STO-SS ON UNIT   1018 AT TIME STEP     10, STRESS PERIOD     22
 UBDSV1 SAVING           STO-SY ON UNIT   1018 AT TIME STEP     10, STRESS PERIOD     22
 UBDSV1 SAVING     FLOW-JA-FACE ON UNIT   1018 AT TIME STEP     10, STRESS PERIOD     22
 UBDSV06 SAVING              RCH IN MODEL TEST_TRANS       PACKAGE TEST_TRANS      CONNECTED TO MODEL TEST_TRANS       PACKAGE RCHA             ON UNIT   1018 AT TIME STEP     10, STRESS PERIOD     22
 UBDSV06 SAVING              CHD IN MODEL TEST_TRANS       PACKAGE TEST_TRANS      CONNECTED TO MODEL TEST_TRANS       PACKAGE CHD              ON UNIT   1018 AT TIME STEP     10, STRESS PERIOD     22
1
  HEAD IN LAYER   1 AT END OF TIME STEP  10 IN STRESS PERIOD   22
  ---------------------------------------------------------------------------

                1               2               3               4               5               6               7               8               9              10
               11              12              13              14              15              16              17              18              19              20
               21              22              23              24              25              26              27              28              29              30
 ................................................................................................................................................................
   1      27.6817         27.6777         27.6696         27.6575         27.6413         27.6209         27.5963         27.5672         27.5337         27.4955    
          27.4524         27.4044         27.3511         27.2922         27.2276         27.1567         27.0793         26.9949         26.9028         26.8026    
          26.6934         26.5743         26.4443         26.3019         26.1453         25.9724         25.7798         25.5630         25.3151         25.0242    
   2      27.6817         27.6777         27.6697         27.6575         27.6413         27.6209         27.5963         27.5672         27.5337         27.4955    
          27.4524         27.4044         27.3511         27.2922         27.2276         27.1567         27.0793         26.9949         26.9028         26.8026    
          26.6934         26.5743         26.4443         26.3019         26.1454         25.9724         25.7798         25.5630         25.3151         25.0242    
   3      27.6817         27.6777         27.6697         27.6575         27.6413         27.6209         27.5963         27.5672         27.5337         27.4955    
          27.4524         27.4044         27.3511         27.2922         27.2276         27.1567         27.0793         26.9949         26.9028         26.8026    
          26.6934         26.5743         26.4443         26.3019         26.1454         25.9724         25.7798         25.5630         25.3151         25.0242    
   4      27.6817         27.6777         27.6697         27.6575         27.6413         27.6209         27.5963         27.5672         27.5337         27.4955    
          27.4524         27.4044         27.3511         27.2922         27.2276         27.1567         27.0793         26.9949         26.9028         26.8026    
          26.6934         26.5743         26.4443         26.3019         26.1454         25.9724         25.7798         25.5630         25.3151         25.0242    
   5      27.6817         27.6777         27.6696         27.6575         27.6413         27.6209         27.5963         27.5672         27.5337         27.4955    
          27.4524         27.4044         27.3511         27.2922         27.2276         27.1567         27.0793         26.9949         26.9028         26.8026    
          26.6934         26.5743         26.4443         26.3019         26.1454         25.9724         25.7798         25.5630         25.3151         25.0242    
   6      27.6817         27.6777         27.6696         27.6575         27.6413         27.6209         27.5963         27.5672         27.5337         27.4955    
          27.4524         27.4044         27.3511         27.2922         27.2276         27.1567         27.0793         26.9948         26.9028         26.8026    
          26.6934         26.5743         26.4443         26.3019         26.1453         25.9724         25.7798         25.5630         25.3151         25.0242    
   7      27.6817         27.6777         27.6696         27.6575         27.6413         27.6209         27.5963         27.5672         27.5337         27.4955    
          27.4524         27.4044         27.3511         27.2922         27.2276         27.1567         27.0793         26.9948         26.9028         26.8026    
          26.6934         26.5743         26.4443         26.3019         26.1453         25.9724         25.7798         25.5630         25.3151         25.0242    
   8      27.6817         27.6777         27.6696         27.6575         27.6413         27.6209         27.5963         27.5672         27.5337         27.4955    
          27.4524         27.4044         27.3511         27.2922         27.2276         27.1567         27.0793         26.9948         26.9028         26.8026    
          26.6934         26.5743         26.4443         26.3019         26.1453         25.9724         25.7798         25.5630         25.3151         25.0242    
   9      27.6817         27.6777         27.6696         27.6575         27.6413         27.6209         27.5963         27.5672         27.5337         27.4955    
          27.4524         27.4044         27.3511         27.2922         27.2276         27.1567         27.0793         26.9948         26.9028         26.8026    
          26.6934         26.5743         26.4443         26.3019         26.1453         25.9724         25.7798         25.5630         25.3151         25.0242    
  10      27.6817         27.6777         27.6696         27.6575         27.6413         27.6209         27.5963         27.5672         27.5337         27.4955    
          27.4524         27.4044         27.3511         27.2922         27.2276         27.1567         27.0793         26.9948         26.9028         26.8026    
          26.6934         26.5743         26.4443         26.3019         26.1453         25.9724         25.7798         25.5630         25.3151         25.0242    
  11      27.6817         27.6777         27.6696         27.6575         27.6413         27.6209         27.5963         27.5672         27.5337         27.4955    
          27.4524         27.4044         27.3511         27.2922         27.2276         27.1567         27.0793         26.9948         26.9028         26.8026    
          26.6934         26.5743         26.4443         26.3019         26.1453         25.9724         25.7798         25.5630         25.3151         25.0242    
  12      27.6817         27.6777         27.6696         27.6575         27.6413         27.6209         27.5963         27.5672         27.5337         27.4955    
          27.4524         27.4044         27.3511         27.2922         27.2276         27.1567         27.0793         26.9948         26.9028         26.8026    
          26.6934         26.5743         26.4443         26.3019         26.1453         25.9724         25.7798         25.5630         25.3151         25.0242    
  13      27.6817         27.6777         27.6696         27.6575         27.6413         27.6209         27.5963         27.5672         27.5337         27.4955    
          27.4524         27.4044         27.3511         27.2922         27.2276         27.1567         27.0793         26.9948         26.9028         26.8026    
          26.6934         26.5743         26.4443         26.3019         26.1453         25.9724         25.7798         25.5630         25.3151         25.0242    
  14      27.6817         27.6777         27.6696         27.6575         27.6413         27.6209         27.5963         27.5672         27.5337         27.4955    
          27.4524         27.4044         27.3511         27.2922         27.2276         27.1567         27.0793         26.9948         26.9028         26.8026    
          26.6934         26.5743         26.4443         26.3019         26.1453         25.9724         25.7798         25.5630         25.3151         25.0242    
  15      27.6817         27.6777         27.6696         27.6575         27.6413         27.6209         27.5963         27.5672         27.5337         27.4955    
          27.4524         27.4044         27.3511         27.2922         27.2276         27.1567         27.0793         26.9948         26.9028         26.8026    
          26.6934         26.5743         26.4443         26.3019         26.1453         25.9724         25.7798         25.5630         25.3151         25.0242    
  16      27.6817         27.6777         27.6696         27.6575         27.6413         27.6209         27.5963         27.5672         27.5337         27.4955    
          27.4524         27.4044         27.3511         27.2922         27.2276         27.1567         27.0793         26.9948         26.9028         26.8026    
          26.6934         26.5743         26.4443         26.3019         26.1453         25.9724         25.7798         25.5630         25.3151         25.0242    
  17      27.6817         27.6777         27.6696         27.6575         27.6413         27.6209         27.5963         27.5672         27.5337         27.4955    
          27.4524         27.4044         27.3511         27.2922         27.2276         27.1567         27.0793         26.9948         26.9028         26.8026    
          26.6934         26.5743         26.4443         26.3019         26.1453         25.9724         25.7798         25.5630         25.3151         25.0242    
  18      27.6817         27.6777         27.6696         27.6575         27.6413         27.6209         27.5963         27.5672         27.5337         27.4955    
          27.4524         27.4044         27.3511         27.2922         27.2276         27.1567         27.0793         26.9948         26.9028         26.8026    
          26.6934         26.5743         26.4443         26.3019         26.1453         25.9724         25.7798         25.5630         25.3151         25.0242    
  19      27.6817         27.6777         27.6696         27.6575         27.6413         27.6209         27.5963         27.5672         27.5337         27.4955    
          27.4524         27.4044         27.3511         27.2922         27.2276         27.1567         27.0793         26.9948         26.9028         26.8026    
          26.6934         26.5743         26.4443         26.3019         26.1453         25.9724         25.7798         25.5630         25.3151         25.0242    
  20      27.6817         27.6777         27.6696         27.6575         27.6413         27.6209         27.5963         27.5672         27.5337         27.4955    
          27.4524         27.4044         27.3511         27.2922         27.2276         27.1567         27.0793         26.9948         26.9028         26.8026    
          26.6934         26.5743         26.4443         26.3019         26.1453         25.9724         25.7798         25.5630         25.3151         25.0242    
  21      27.6817         27.6777         27.6696         27.6575         27.6413         27.6209         27.5963         27.5672         27.5337         27.4955    
          27.4524         27.4044         27.3511         27.2922         27.2275         27.1567         27.0793         26.9948         26.9028         26.8026    
          26.6934         26.5743         26.4443         26.3019         26.1454         25.9724         25.7798         25.5630         25.3151         25.0242    
  22      27.6817         27.6777         27.6696         27.6575         27.6413         27.6209         27.5963         27.5672         27.5337         27.4955    
          27.4524         27.4044         27.3511         27.2922         27.2275         27.1567         27.0793         26.9948         26.9028         26.8026    
          26.6934         26.5743         26.4443         26.3019         26.1454         25.9724         25.7798         25.5630         25.3151         25.0242    
  23      27.6817         27.6777         27.6696         27.6575         27.6413         27.6209         27.5963         27.5672         27.5337         27.4955    
          27.4524         27.4044         27.3511         27.2922         27.2275         27.1567         27.0793         26.9948         26.9028         26.8026    
          26.6934         26.5743         26.4443         26.3019         26.1453         25.9724         25.7798         25.5630         25.3151         25.0242    
  24      27.6817         27.6777         27.6696         27.6575         27.6413         27.6209         27.5963         27.5672         27.5337         27.4955    
          27.4524         27.4044         27.3511         27.2922         27.2275         27.1567         27.0793         26.9948         26.9028         26.8026    
          26.6934         26.5743         26.4443         26.3019         26.1453         25.9724         25.7798         25.5630         25.3151         25.0242    
  25      27.6817         27.6777         27.6696         27.6575         27.6413         27.6209         27.5963         27.5672         27.5337         27.4955    
          27.4524         27.4044         27.3511         27.2922         27.2275         27.1567         27.0793         26.9948         26.9028         26.8026    
          26.6934         26.5743         26.4443         26.3019         26.1453         25.9724         25.7798         25.5630         25.3151         25.0242    
  26      27.6817         27.6777         27.6697         27.6575         27.6413         27.6209         27.5963         27.5672         27.5337         27.4955    
          27.4524         27.4044         27.3511         27.2922         27.2275         27.1567         27.0793         26.9948         26.9028         26.8026    
          26.6934         26.5743         26.4443         26.3019         26.1453         25.9724         25.7798         25.5630         25.3151         25.0242    
  27      27.6817         27.6777         27.6697         27.6575         27.6413         27.6209         27.5963         27.5672         27.5337         27.4955    
          27.4524         27.4044         27.3511         27.2922         27.2275         27.1567         27.0793         26.9948         26.9028         26.8026    
          26.6934         26.5743         26.4443         26.3019         26.1453         25.9724         25.7798         25.5630         25.3151         25.0242    
  28      27.6817         27.6777         27.6697         27.6576         27.6413         27.6209         27.5963         27.5672         27.5337         27.4955    
          27.4524         27.4044         27.3511         27.2922         27.2275         27.1567         27.0793         26.9948         26.9028         26.8026    
          26.6934         26.5743         26.4443         26.3019         26.1453         25.9724         25.7798         25.5630         25.3151         25.0242    
  29      27.6817         27.6777         27.6696         27.6575         27.6413         27.6209         27.5963         27.5672         27.5337         27.4955    
          27.4524         27.4044         27.3511         27.2922         27.2275         27.1567         27.0793         26.9948         26.9028         26.8026    
          26.6934         26.5743         26.4443         26.3019         26.1453         25.9724         25.7798         25.5630         25.3151         25.0242    
  30      27.6817         27.6777         27.6696         27.6575         27.6413         27.6209         27.5963         27.5672         27.5337         27.4955    
          27.4524         27.4044         27.3511         27.2922         27.2275         27.1567         27.0793         26.9948         26.9028         26.8026    
          26.6934         26.5743         26.4443         26.3019         26.1453         25.9724         25.7798         25.5630         25.3151         25.0242    

 HEAD WILL BE SAVED ON UNIT 1019 AT END OF TIME STEP   10, STRESS PERIOD   22


  VOLUME BUDGET FOR ENTIRE MODEL AT END OF TIME STEP   10, STRESS PERIOD  22
  ---------------------------------------------------------------------------------------------------

     CUMULATIVE VOLUME      L**3       RATES FOR THIS TIME STEP      L**3/T          PACKAGE NAME    
     ------------------                 ------------------------                     ----------------

           IN:                                      IN:
           ---                                      ---
              STO-SS =          37.4690                STO-SS =           0.0000     STORAGE         
              STO-SY =       24035.8958                STO-SY =           0.0000     STORAGE         
                 RCH =       98917.8525                   RCH =         190.6849     RCHA            
                 CHD =        1305.4009                   CHD =           0.0000     CHD             

            TOTAL IN =      124296.6182              TOTAL IN =         190.6849

          OUT:                                     OUT:
          ----                                     ----
              STO-SS =          27.1386                STO-SS =       4.4115E-02     STORAGE         
              STO-SY =       17764.5100                STO-SY =          27.8050     STORAGE         
                 RCH =           0.0000                   RCH =           0.0000     RCHA            
                 CHD =      106504.4580                   CHD =         162.8486     CHD             

           TOTAL OUT =      124296.1065             TOTAL OUT =         190.6976

            IN - OUT =           0.5117              IN - OUT =      -1.2784E-02

 PERCENT DISCREPANCY =           0.00     PERCENT DISCREPANCY =          -0.01




         TIME SUMMARY AT END OF TIME STEP   10 IN STRESS PERIOD   22
                    SECONDS     MINUTES      HOURS       DAYS        YEARS
                    -----------------------------------------------------------
   TIME STEP LENGTH 2.59200E+05  4320.0      72.000      3.0000     8.21355E-03
 STRESS PERIOD TIME 2.59200E+06  43200.      720.00      30.000     8.21355E-02
         TOTAL TIME 5.45184E+07 9.08640E+05  15144.      631.00      1.7276    

 OUTPUT CONTROL FOR STRESS PERIOD 23 IS REPEATED USING SETTINGS FROM A PREVIOUS STRESS PERIOD.


 STRESS PERIOD 23 IS TRANSIENT


                 RECHARGE =  0.2465750E-02
 UBDSV1 SAVING           STO-SS ON UNIT   1018 AT TIME STEP      1, STRESS PERIOD     23
 UBDSV1 SAVING           STO-SY ON UNIT   1018 AT TIME STEP      1, STRESS PERIOD     23
 UBDSV1 SAVING     FLOW-JA-FACE ON UNIT   1018 AT TIME STEP      1, STRESS PERIOD     23
 UBDSV06 SAVING              RCH IN MODEL TEST_TRANS       PACKAGE TEST_TRANS      CONNECTED TO MODEL TEST_TRANS       PACKAGE RCHA             ON UNIT   1018 AT TIME STEP      1, STRESS PERIOD     23
 UBDSV06 SAVING              CHD IN MODEL TEST_TRANS       PACKAGE TEST_TRANS      CONNECTED TO MODEL TEST_TRANS       PACKAGE CHD              ON UNIT   1018 AT TIME STEP      1, STRESS PERIOD     23
1
  HEAD IN LAYER   1 AT END OF TIME STEP   1 IN STRESS PERIOD   23
  ---------------------------------------------------------------------------

                1               2               3               4               5               6               7               8               9              10
               11              12              13              14              15              16              17              18              19              20
               21              22              23              24              25              26              27              28              29              30
 ................................................................................................................................................................
   1      27.6941         27.6900         27.6819         27.6697         27.6533         27.6328         27.6079         27.5786         27.5448         27.5063    
          27.4629         27.4146         27.3609         27.3017         27.2366         27.1654         27.0876         27.0027         26.9103         26.8097    
          26.7001         26.5806         26.4501         26.3071         26.1500         25.9761         25.7821         25.5630         25.3107         25.0108    
   2      27.6941         27.6900         27.6819         27.6697         27.6533         27.6328         27.6079         27.5786         27.5448         27.5063    
          27.4629         27.4146         27.3609         27.3017         27.2366         27.1654         27.0876         27.0027         26.9103         26.8097    
          26.7001         26.5806         26.4501         26.3071         26.1499         25.9761         25.7821         25.5630         25.3107         25.0108    
   3      27.6941         27.6900         27.6819         27.6697         27.6533         27.6328         27.6079         27.5786         27.5448         27.5063    
          27.4629         27.4145         27.3609         27.3017         27.2366         27.1654         27.0876         27.0027         26.9103         26.8097    
          26.7001         26.5806         26.4501         26.3071         26.1499         25.9761         25.7821         25.5630         25.3107         25.0108    
   4      27.6941         27.6900         27.6819         27.6697         27.6533         27.6328         27.6079         27.5786         27.5448         27.5063    
          27.4629         27.4145         27.3609         27.3017         27.2366         27.1654         27.0876         27.0027         26.9103         26.8097    
          26.7001         26.5806         26.4501         26.3071         26.1499         25.9761         25.7821         25.5630         25.3107         25.0108    
   5      27.6941         27.6900         27.6819         27.6697         27.6533         27.6328         27.6079         27.5786         27.5448         27.5063    
          27.4629         27.4145         27.3609         27.3017         27.2366         27.1654         27.0876         27.0027         26.9103         26.8097    
          26.7001         26.5806         26.4501         26.3071         26.1499         25.9761         25.7821         25.5630         25.3107         25.0108    
   6      27.6941         27.6900         27.6819         27.6697         27.6533         27.6327         27.6079         27.5786         27.5448         27.5063    
          27.4629         27.4145         27.3609         27.3017         27.2366         27.1654         27.0876         27.0027         26.9103         26.8097    
          26.7001         26.5806         26.4501         26.3071         26.1499         25.9761         25.7821         25.5630         25.3107         25.0108    
   7      27.6941         27.6900         27.6819         27.6697         27.6533         27.6327         27.6079         27.5786         27.5448         27.5063    
          27.4629         27.4145         27.3609         27.3017         27.2366         27.1654         27.0876         27.0027         26.9103         26.8097    
          26.7001         26.5806         26.4501         26.3071         26.1499         25.9761         25.7821         25.5630         25.3107         25.0108    
   8      27.6940         27.6900         27.6819         27.6697         27.6533         27.6327         27.6079         27.5786         27.5448         27.5063    
          27.4629         27.4145         27.3609         27.3017         27.2366         27.1654         27.0876         27.0027         26.9103         26.8097    
          26.7001         26.5806         26.4501         26.3071         26.1499         25.9761         25.7821         25.5630         25.3107         25.0108    
   9      27.6940         27.6900         27.6819         27.6697         27.6533         27.6327         27.6079         27.5786         27.5448         27.5063    
          27.4629         27.4145         27.3609         27.3017         27.2366         27.1654         27.0876         27.0027         26.9103         26.8097    
          26.7001         26.5806         26.4501         26.3071         26.1499         25.9761         25.7821         25.5630         25.3107         25.0108    
  10      27.6940         27.6900         27.6819         27.6697         27.6533         27.6327         27.6079         27.5786         27.5448         27.5063    
          27.4629         27.4145         27.3609         27.3017         27.2366         27.1654         27.0876         27.0027         26.9103         26.8097    
          26.7001         26.5806         26.4501         26.3071         26.1499         25.9761         25.7821         25.5630         25.3107         25.0108    
  11      27.6940         27.6900         27.6819         27.6697         27.6533         27.6327         27.6079         27.5786         27.5448         27.5063    
          27.4629         27.4145         27.3609         27.3017         27.2366         27.1654         27.0876         27.0027         26.9103         26.8097    
          26.7000         26.5806         26.4501         26.3071         26.1499         25.9761         25.7821         25.5630         25.3107         25.0108    
  12      27.6940         27.6900         27.6819         27.6697         27.6533         27.6327         27.6079         27.5786         27.5448         27.5063    
          27.4629         27.4145         27.3609         27.3017         27.2366         27.1654         27.0876         27.0027         26.9103         26.8097    
          26.7000         26.5806         26.4501         26.3071         26.1499         25.9761         25.7821         25.5630         25.3107         25.0108    
  13      27.6940         27.6900         27.6819         27.6697         27.6533         27.6327         27.6079         27.5786         27.5448         27.5063    
          27.4629         27.4145         27.3609         27.3017         27.2366         27.1654         27.0876         27.0027         26.9103         26.8097    
          26.7000         26.5806         26.4501         26.3071         26.1499         25.9761         25.7821         25.5630         25.3107         25.0108    
  14      27.6940         27.6900         27.6819         27.6697         27.6533         27.6327         27.6079         27.5786         27.5448         27.5063    
          27.4629         27.4145         27.3609         27.3017         27.2366         27.1654         27.0876         27.0027         26.9103         26.8097    
          26.7000         26.5806         26.4501         26.3071         26.1499         25.9761         25.7821         25.5630         25.3107         25.0108    
  15      27.6940         27.6900         27.6819         27.6697         27.6533         27.6327         27.6079         27.5786         27.5448         27.5063    
          27.4629         27.4145         27.3609         27.3017         27.2366         27.1654         27.0876         27.0027         26.9103         26.8097    
          26.7000         26.5806         26.4501         26.3071         26.1499         25.9761         25.7821         25.5630         25.3107         25.0108    
  16      27.6940         27.6900         27.6819         27.6697         27.6533         27.6327         27.6079         27.5786         27.5448         27.5063    
          27.4629         27.4145         27.3609         27.3017         27.2366         27.1654         27.0876         27.0027         26.9103         26.8097    
          26.7000         26.5806         26.4501         26.3071         26.1499         25.9761         25.7821         25.5630         25.3107         25.0108    
  17      27.6940         27.6900         27.6819         27.6697         27.6533         27.6327         27.6079         27.5786         27.5448         27.5063    
          27.4629         27.4145         27.3609         27.3017         27.2366         27.1654         27.0876         27.0027         26.9103         26.8097    
          26.7000         26.5806         26.4501         26.3071         26.1499         25.9761         25.7821         25.5630         25.3107         25.0108    
  18      27.6940         27.6900         27.6819         27.6697         27.6533         27.6327         27.6079         27.5786         27.5448         27.5063    
          27.4629         27.4145         27.3609         27.3017         27.2366         27.1654         27.0876         27.0027         26.9103         26.8097    
          26.7000         26.5806         26.4501         26.3071         26.1499         25.9761         25.7821         25.5630         25.3107         25.0108    
  19      27.6940         27.6900         27.6819         27.6697         27.6533         27.6327         27.6079         27.5786         27.5448         27.5063    
          27.4629         27.4145         27.3609         27.3017         27.2366         27.1654         27.0876         27.0027         26.9103         26.8097    
          26.7000         26.5806         26.4501         26.3071         26.1499         25.9761         25.7821         25.5630         25.3107         25.0108    
  20      27.6940         27.6900         27.6819         27.6697         27.6533         27.6327         27.6079         27.5786         27.5448         27.5063    
          27.4629         27.4145         27.3609         27.3017         27.2366         27.1654         27.0876         27.0027         26.9103         26.8097    
          26.7000         26.5806         26.4501         26.3071         26.1499         25.9761         25.7821         25.5630         25.3107         25.0108    
  21      27.6940         27.6900         27.6819         27.6697         27.6533         27.6327         27.6079         27.5786         27.5448         27.5063    
          27.4629         27.4145         27.3609         27.3017         27.2366         27.1654         27.0876         27.0027         26.9103         26.8097    
          26.7000         26.5806         26.4501         26.3071         26.1499         25.9761         25.7821         25.5630         25.3107         25.0108    
  22      27.6940         27.6900         27.6819         27.6697         27.6533         27.6327         27.6079         27.5786         27.5448         27.5063    
          27.4629         27.4145         27.3609         27.3017         27.2366         27.1654         27.0876         27.0027         26.9103         26.8097    
          26.7000         26.5806         26.4501         26.3071         26.1499         25.9761         25.7821         25.5630         25.3107         25.0108    
  23      27.6940         27.6900         27.6819         27.6697         27.6533         27.6327         27.6079         27.5786         27.5448         27.5063    
          27.4629         27.4145         27.3609         27.3017         27.2366         27.1654         27.0876         27.0027         26.9103         26.8097    
          26.7000         26.5806         26.4501         26.3071         26.1499         25.9761         25.7821         25.5630         25.3107         25.0108    
  24      27.6940         27.6900         27.6819         27.6697         27.6533         27.6327         27.6079         27.5786         27.5448         27.5063    
          27.4629         27.4145         27.3609         27.3017         27.2366         27.1654         27.0876         27.0027         26.9103         26.8097    
          26.7000         26.5806         26.4501         26.3071         26.1499         25.9761         25.7821         25.5630         25.3107         25.0108    
  25      27.6940         27.6900         27.6819         27.6697         27.6533         27.6327         27.6079         27.5786         27.5448         27.5063    
          27.4629         27.4145         27.3609         27.3017         27.2366         27.1654         27.0876         27.0027         26.9103         26.8097    
          26.7000         26.5806         26.4501         26.3071         26.1499         25.9761         25.7821         25.5630         25.3107         25.0108    
  26      27.6940         27.6900         27.6819         27.6697         27.6533         27.6327         27.6079         27.5786         27.5448         27.5063    
          27.4629         27.4145         27.3609         27.3017         27.2366         27.1654         27.0876         27.0027         26.9103         26.8097    
          26.7000         26.5806         26.4501         26.3071         26.1499         25.9761         25.7821         25.5630         25.3107         25.0108    
  27      27.6940         27.6900         27.6819         27.6697         27.6533         27.6327         27.6079         27.5786         27.5448         27.5063    
          27.4629         27.4145         27.3609         27.3017         27.2366         27.1654         27.0876         27.0027         26.9103         26.8097    
          26.7000         26.5806         26.4501         26.3071         26.1499         25.9761         25.7821         25.5630         25.3107         25.0108    
  28      27.6940         27.6900         27.6819         27.6697         27.6533         27.6327         27.6079         27.5786         27.5448         27.5063    
          27.4629         27.4145         27.3609         27.3017         27.2366         27.1654         27.0876         27.0027         26.9103         26.8097    
          26.7000         26.5806         26.4501         26.3071         26.1499         25.9761         25.7821         25.5630         25.3107         25.0108    
  29      27.6940         27.6900         27.6819         27.6697         27.6533         27.6327         27.6079         27.5786         27.5448         27.5063    
          27.4629         27.4145         27.3609         27.3017         27.2366         27.1654         27.0876         27.0027         26.9103         26.8097    
          26.7000         26.5806         26.4501         26.3071         26.1499         25.9761         25.7821         25.5630         25.3107         25.0108    
  30      27.6940         27.6900         27.6819         27.6697         27.6533         27.6327         27.6079         27.5786         27.5448         27.5063    
          27.4629         27.4145         27.3609         27.3017         27.2366         27.1654         27.0876         27.0027         26.9103         26.8097    
          26.7000         26.5806         26.4501         26.3071         26.1499         25.9761         25.7821         25.5630         25.3107         25.0108    

 HEAD WILL BE SAVED ON UNIT 1019 AT END OF TIME STEP    1, STRESS PERIOD   23



         TIME SUMMARY AT END OF TIME STEP    1 IN STRESS PERIOD   23
                    SECONDS     MINUTES      HOURS       DAYS        YEARS
                    -----------------------------------------------------------
   TIME STEP LENGTH 2.59200E+05  4320.0      72.000      3.0000     8.21355E-03
 STRESS PERIOD TIME 2.59200E+05  4320.0      72.000      3.0000     8.21355E-03
         TOTAL TIME 5.47776E+07 9.12960E+05  15216.      634.00      1.7358    
 UBDSV1 SAVING           STO-SS ON UNIT   1018 AT TIME STEP      2, STRESS PERIOD     23
 UBDSV1 SAVING           STO-SY ON UNIT   1018 AT TIME STEP      2, STRESS PERIOD     23
 UBDSV1 SAVING     FLOW-JA-FACE ON UNIT   1018 AT TIME STEP      2, STRESS PERIOD     23
 UBDSV06 SAVING              RCH IN MODEL TEST_TRANS       PACKAGE TEST_TRANS      CONNECTED TO MODEL TEST_TRANS       PACKAGE RCHA             ON UNIT   1018 AT TIME STEP      2, STRESS PERIOD     23
 UBDSV06 SAVING              CHD IN MODEL TEST_TRANS       PACKAGE TEST_TRANS      CONNECTED TO MODEL TEST_TRANS       PACKAGE CHD              ON UNIT   1018 AT TIME STEP      2, STRESS PERIOD     23

 HEAD WILL BE SAVED ON UNIT 1019 AT END OF TIME STEP    2, STRESS PERIOD   23
 UBDSV1 SAVING           STO-SS ON UNIT   1018 AT TIME STEP      3, STRESS PERIOD     23
 UBDSV1 SAVING           STO-SY ON UNIT   1018 AT TIME STEP      3, STRESS PERIOD     23
 UBDSV1 SAVING     FLOW-JA-FACE ON UNIT   1018 AT TIME STEP      3, STRESS PERIOD     23
 UBDSV06 SAVING              RCH IN MODEL TEST_TRANS       PACKAGE TEST_TRANS      CONNECTED TO MODEL TEST_TRANS       PACKAGE RCHA             ON UNIT   1018 AT TIME STEP      3, STRESS PERIOD     23
 UBDSV06 SAVING              CHD IN MODEL TEST_TRANS       PACKAGE TEST_TRANS      CONNECTED TO MODEL TEST_TRANS       PACKAGE CHD              ON UNIT   1018 AT TIME STEP      3, STRESS PERIOD     23

 HEAD WILL BE SAVED ON UNIT 1019 AT END OF TIME STEP    3, STRESS PERIOD   23
 UBDSV1 SAVING           STO-SS ON UNIT   1018 AT TIME STEP      4, STRESS PERIOD     23
 UBDSV1 SAVING           STO-SY ON UNIT   1018 AT TIME STEP      4, STRESS PERIOD     23
 UBDSV1 SAVING     FLOW-JA-FACE ON UNIT   1018 AT TIME STEP      4, STRESS PERIOD     23
 UBDSV06 SAVING              RCH IN MODEL TEST_TRANS       PACKAGE TEST_TRANS      CONNECTED TO MODEL TEST_TRANS       PACKAGE RCHA             ON UNIT   1018 AT TIME STEP      4, STRESS PERIOD     23
 UBDSV06 SAVING              CHD IN MODEL TEST_TRANS       PACKAGE TEST_TRANS      CONNECTED TO MODEL TEST_TRANS       PACKAGE CHD              ON UNIT   1018 AT TIME STEP      4, STRESS PERIOD     23

 HEAD WILL BE SAVED ON UNIT 1019 AT END OF TIME STEP    4, STRESS PERIOD   23
 UBDSV1 SAVING           STO-SS ON UNIT   1018 AT TIME STEP      5, STRESS PERIOD     23
 UBDSV1 SAVING           STO-SY ON UNIT   1018 AT TIME STEP      5, STRESS PERIOD     23
 UBDSV1 SAVING     FLOW-JA-FACE ON UNIT   1018 AT TIME STEP      5, STRESS PERIOD     23
 UBDSV06 SAVING              RCH IN MODEL TEST_TRANS       PACKAGE TEST_TRANS      CONNECTED TO MODEL TEST_TRANS       PACKAGE RCHA             ON UNIT   1018 AT TIME STEP      5, STRESS PERIOD     23
 UBDSV06 SAVING              CHD IN MODEL TEST_TRANS       PACKAGE TEST_TRANS      CONNECTED TO MODEL TEST_TRANS       PACKAGE CHD              ON UNIT   1018 AT TIME STEP      5, STRESS PERIOD     23

 HEAD WILL BE SAVED ON UNIT 1019 AT END OF TIME STEP    5, STRESS PERIOD   23
 UBDSV1 SAVING           STO-SS ON UNIT   1018 AT TIME STEP      6, STRESS PERIOD     23
 UBDSV1 SAVING           STO-SY ON UNIT   1018 AT TIME STEP      6, STRESS PERIOD     23
 UBDSV1 SAVING     FLOW-JA-FACE ON UNIT   1018 AT TIME STEP      6, STRESS PERIOD     23
 UBDSV06 SAVING              RCH IN MODEL TEST_TRANS       PACKAGE TEST_TRANS      CONNECTED TO MODEL TEST_TRANS       PACKAGE RCHA             ON UNIT   1018 AT TIME STEP      6, STRESS PERIOD     23
 UBDSV06 SAVING              CHD IN MODEL TEST_TRANS       PACKAGE TEST_TRANS      CONNECTED TO MODEL TEST_TRANS       PACKAGE CHD              ON UNIT   1018 AT TIME STEP      6, STRESS PERIOD     23

 HEAD WILL BE SAVED ON UNIT 1019 AT END OF TIME STEP    6, STRESS PERIOD   23
 UBDSV1 SAVING           STO-SS ON UNIT   1018 AT TIME STEP      7, STRESS PERIOD     23
 UBDSV1 SAVING           STO-SY ON UNIT   1018 AT TIME STEP      7, STRESS PERIOD     23
 UBDSV1 SAVING     FLOW-JA-FACE ON UNIT   1018 AT TIME STEP      7, STRESS PERIOD     23
 UBDSV06 SAVING              RCH IN MODEL TEST_TRANS       PACKAGE TEST_TRANS      CONNECTED TO MODEL TEST_TRANS       PACKAGE RCHA             ON UNIT   1018 AT TIME STEP      7, STRESS PERIOD     23
 UBDSV06 SAVING              CHD IN MODEL TEST_TRANS       PACKAGE TEST_TRANS      CONNECTED TO MODEL TEST_TRANS       PACKAGE CHD              ON UNIT   1018 AT TIME STEP      7, STRESS PERIOD     23

 HEAD WILL BE SAVED ON UNIT 1019 AT END OF TIME STEP    7, STRESS PERIOD   23
 UBDSV1 SAVING           STO-SS ON UNIT   1018 AT TIME STEP      8, STRESS PERIOD     23
 UBDSV1 SAVING           STO-SY ON UNIT   1018 AT TIME STEP      8, STRESS PERIOD     23
 UBDSV1 SAVING     FLOW-JA-FACE ON UNIT   1018 AT TIME STEP      8, STRESS PERIOD     23
 UBDSV06 SAVING              RCH IN MODEL TEST_TRANS       PACKAGE TEST_TRANS      CONNECTED TO MODEL TEST_TRANS       PACKAGE RCHA             ON UNIT   1018 AT TIME STEP      8, STRESS PERIOD     23
 UBDSV06 SAVING              CHD IN MODEL TEST_TRANS       PACKAGE TEST_TRANS      CONNECTED TO MODEL TEST_TRANS       PACKAGE CHD              ON UNIT   1018 AT TIME STEP      8, STRESS PERIOD     23

 HEAD WILL BE SAVED ON UNIT 1019 AT END OF TIME STEP    8, STRESS PERIOD   23
 UBDSV1 SAVING           STO-SS ON UNIT   1018 AT TIME STEP      9, STRESS PERIOD     23
 UBDSV1 SAVING           STO-SY ON UNIT   1018 AT TIME STEP      9, STRESS PERIOD     23
 UBDSV1 SAVING     FLOW-JA-FACE ON UNIT   1018 AT TIME STEP      9, STRESS PERIOD     23
 UBDSV06 SAVING              RCH IN MODEL TEST_TRANS       PACKAGE TEST_TRANS      CONNECTED TO MODEL TEST_TRANS       PACKAGE RCHA             ON UNIT   1018 AT TIME STEP      9, STRESS PERIOD     23
 UBDSV06 SAVING              CHD IN MODEL TEST_TRANS       PACKAGE TEST_TRANS      CONNECTED TO MODEL TEST_TRANS       PACKAGE CHD              ON UNIT   1018 AT TIME STEP      9, STRESS PERIOD     23

 HEAD WILL BE SAVED ON UNIT 1019 AT END OF TIME STEP    9, STRESS PERIOD   23
 UBDSV1 SAVING           STO-SS ON UNIT   1018 AT TIME STEP     10, STRESS PERIOD     23
 UBDSV1 SAVING           STO-SY ON UNIT   1018 AT TIME STEP     10, STRESS PERIOD     23
 UBDSV1 SAVING     FLOW-JA-FACE ON UNIT   1018 AT TIME STEP     10, STRESS PERIOD     23
 UBDSV06 SAVING              RCH IN MODEL TEST_TRANS       PACKAGE TEST_TRANS      CONNECTED TO MODEL TEST_TRANS       PACKAGE RCHA             ON UNIT   1018 AT TIME STEP     10, STRESS PERIOD     23
 UBDSV06 SAVING              CHD IN MODEL TEST_TRANS       PACKAGE TEST_TRANS      CONNECTED TO MODEL TEST_TRANS       PACKAGE CHD              ON UNIT   1018 AT TIME STEP     10, STRESS PERIOD     23
1
  HEAD IN LAYER   1 AT END OF TIME STEP  10 IN STRESS PERIOD   23
  ---------------------------------------------------------------------------

                1               2               3               4               5               6               7               8               9              10
               11              12              13              14              15              16              17              18              19              20
               21              22              23              24              25              26              27              28              29              30
 ................................................................................................................................................................
   1      27.7945         27.7902         27.7816         27.7687         27.7513         27.7296         27.7033         27.6724         27.6367         27.5962    
          27.5506         27.4998         27.4436         27.3816         27.3136         27.2393         27.1583         27.0700         26.9740         26.8695    
          26.7559         26.6321         26.4970         26.3491         26.1865         26.0066         25.8059         25.5793         25.3189         25.0108    
   2      27.7945         27.7902         27.7816         27.7687         27.7513         27.7296         27.7033         27.6724         27.6367         27.5962    
          27.5506         27.4998         27.4436         27.3816         27.3136         27.2393         27.1583         27.0700         26.9740         26.8695    
          26.7559         26.6321         26.4970         26.3491         26.1865         26.0066         25.8059         25.5793         25.3189         25.0108    
   3      27.7945         27.7902         27.7816         27.7687         27.7513         27.7296         27.7033         27.6724         27.6367         27.5962    
          27.5506         27.4998         27.4436         27.3816         27.3136         27.2393         27.1583         27.0700         26.9740         26.8695    
          26.7559         26.6321         26.4970         26.3491         26.1865         26.0066         25.8059         25.5793         25.3189         25.0108    
   4      27.7945         27.7902         27.7816         27.7687         27.7513         27.7296         27.7033         27.6724         27.6367         27.5962    
          27.5506         27.4998         27.4436         27.3816         27.3136         27.2393         27.1583         27.0700         26.9740         26.8695    
          26.7559         26.6321         26.4970         26.3491         26.1865         26.0066         25.8059         25.5793         25.3189         25.0108    
   5      27.7945         27.7902         27.7816         27.7687         27.7513         27.7296         27.7033         27.6724         27.6367         27.5962    
          27.5506         27.4998         27.4436         27.3816         27.3136         27.2393         27.1583         27.0700         26.9740         26.8695    
          26.7559         26.6321         26.4970         26.3491         26.1865         26.0066         25.8059         25.5793         25.3189         25.0108    
   6      27.7945         27.7902         27.7816         27.7687         27.7513         27.7296         27.7033         27.6724         27.6367         27.5962    
          27.5506         27.4998         27.4436         27.3816         27.3136         27.2393         27.1583         27.0700         26.9740         26.8695    
          26.7559         26.6321         26.4970         26.3491         26.1865         26.0066         25.8059         25.5793         25.3189         25.0108    
   7      27.7945         27.7902         27.7816         27.7687         27.7513         27.7296         27.7033         27.6724         27.6367         27.5962    
          27.5506         27.4998         27.4436         27.3816         27.3136         27.2393         27.1583         27.0700         26.9740         26.8695    
          26.7559         26.6321         26.4970         26.3491         26.1865         26.0066         25.8059         25.5793         25.3189         25.0108    
   8      27.7945         27.7902         27.7816         27.7687         27.7513         27.7296         27.7033         27.6724         27.6367         27.5962    
          27.5506         27.4998         27.4436         27.3816         27.3136         27.2393         27.1583         27.0700         26.9740         26.8695    
          26.7559         26.6321         26.4970         26.3491         26.1865         26.0066         25.8059         25.5793         25.3189         25.0108    
   9      27.7945         27.7902         27.7816         27.7687         27.7513         27.7296         27.7033         27.6724         27.6367         27.5962    
          27.5506         27.4998         27.4436         27.3816         27.3136         27.2393         27.1583         27.0700         26.9740         26.8695    
          26.7559         26.6321         26.4970         26.3491         26.1865         26.0066         25.8059         25.5793         25.3189         25.0108    
  10      27.7945         27.7902         27.7816         27.7687         27.7513         27.7296         27.7033         27.6724         27.6367         27.5962    
          27.5506         27.4998         27.4436         27.3816         27.3136         27.2393         27.1583         27.0700         26.9740         26.8695    
          26.7559         26.6321         26.4970         26.3491         26.1865         26.0066         25.8059         25.5793         25.3189         25.0108    
  11      27.7945         27.7902         27.7816         27.7687         27.7513         27.7296         27.7033         27.6724         27.6367         27.5962    
          27.5506         27.4998         27.4436         27.3816         27.3136         27.2393         27.1583         27.0700         26.9740         26.8695    
          26.7559         26.6321         26.4970         26.3491         26.1865         26.0066         25.8059         25.5793         25.3189         25.0108    
  12      27.7945         27.7902         27.7816         27.7687         27.7513         27.7296         27.7033         27.6724         27.6367         27.5962    
          27.5506         27.4998         27.4436         27.3816         27.3136         27.2393         27.1583         27.0700         26.9740         26.8695    
          26.7559         26.6321         26.4970         26.3491         26.1865         26.0066         25.8059         25.5793         25.3189         25.0108    
  13      27.7945         27.7902         27.7816         27.7687         27.7513         27.7296         27.7033         27.6724         27.6367         27.5962    
          27.5506         27.4998         27.4436         27.3816         27.3136         27.2393         27.1583         27.0700         26.9740         26.8695    
          26.7559         26.6321         26.4970         26.3491         26.1865         26.0066         25.8059         25.5793         25.3189         25.0108    
  14      27.7945         27.7902         27.7816         27.7687         27.7513         27.7296         27.7033         27.6724         27.6367         27.5962    
          27.5506         27.4998         27.4436         27.3816         27.3136         27.2393         27.1583         27.0700         26.9740         26.8695    
          26.7559         26.6321         26.4970         26.3491         26.1865         26.0066         25.8059         25.5793         25.3189         25.0108    
  15      27.7945         27.7902         27.7816         27.7687         27.7513         27.7296         27.7033         27.6724         27.6367         27.5962    
          27.5506         27.4998         27.4436         27.3816         27.3136         27.2393         27.1583         27.0700         26.9740         26.8695    
          26.7559         26.6321         26.4970         26.3491         26.1865         26.0066         25.8059         25.5793         25.3189         25.0108    
  16      27.7945         27.7902         27.7816         27.7687         27.7513         27.7296         27.7033         27.6724         27.6367         27.5962    
          27.5506         27.4998         27.4436         27.3816         27.3136         27.2393         27.1583         27.0700         26.9740         26.8695    
          26.7559         26.6321         26.4970         26.3491         26.1865         26.0066         25.8059         25.5793         25.3189         25.0108    
  17      27.7945         27.7902         27.7816         27.7687         27.7513         27.7296         27.7033         27.6724         27.6367         27.5962    
          27.5506         27.4998         27.4436         27.3816         27.3136         27.2393         27.1583         27.0700         26.9740         26.8695    
          26.7559         26.6321         26.4970         26.3491         26.1865         26.0066         25.8059         25.5793         25.3189         25.0108    
  18      27.7945         27.7902         27.7816         27.7687         27.7513         27.7296         27.7033         27.6724         27.6367         27.5962    
          27.5506         27.4998         27.4436         27.3816         27.3136         27.2393         27.1583         27.0700         26.9740         26.8695    
          26.7559         26.6321         26.4970         26.3491         26.1865         26.0066         25.8059         25.5793         25.3189         25.0108    
  19      27.7945         27.7902         27.7816         27.7687         27.7513         27.7296         27.7033         27.6724         27.6367         27.5962    
          27.5506         27.4998         27.4436         27.3816         27.3136         27.2393         27.1583         27.0700         26.9740         26.8695    
          26.7559         26.6321         26.4970         26.3491         26.1865         26.0066         25.8059         25.5793         25.3189         25.0108    
  20      27.7945         27.7902         27.7816         27.7687         27.7513         27.7296         27.7033         27.6724         27.6367         27.5962    
          27.5506         27.4998         27.4436         27.3816         27.3136         27.2393         27.1583         27.0700         26.9740         26.8695    
          26.7559         26.6321         26.4970         26.3491         26.1865         26.0066         25.8059         25.5793         25.3189         25.0108    
  21      27.7945         27.7902         27.7816         27.7687         27.7513         27.7296         27.7033         27.6724         27.6367         27.5962    
          27.5506         27.4998         27.4436         27.3816         27.3136         27.2393         27.1583         27.0700         26.9740         26.8695    
          26.7559         26.6321         26.4970         26.3491         26.1865         26.0066         25.8059         25.5793         25.3189         25.0108    
  22      27.7945         27.7902         27.7816         27.7687         27.7513         27.7296         27.7033         27.6724         27.6367         27.5962    
          27.5506         27.4998         27.4436         27.3816         27.3136         27.2393         27.1583         27.0700         26.9740         26.8695    
          26.7559         26.6321         26.4970         26.3491         26.1865         26.0066         25.8059         25.5793         25.3189         25.0108    
  23      27.7945         27.7902         27.7816         27.7687         27.7513         27.7296         27.7033         27.6724         27.6367         27.5962    
          27.5506         27.4998         27.4436         27.3816         27.3136         27.2393         27.1583         27.0700         26.9740         26.8695    
          26.7559         26.6321         26.4970         26.3491         26.1865         26.0066         25.8059         25.5793         25.3189         25.0108    
  24      27.7945         27.7902         27.7816         27.7687         27.7513         27.7296         27.7033         27.6724         27.6367         27.5962    
          27.5506         27.4998         27.4436         27.3816         27.3136         27.2393         27.1583         27.0700         26.9740         26.8695    
          26.7559         26.6321         26.4970         26.3491         26.1865         26.0066         25.8059         25.5793         25.3189         25.0108    
  25      27.7945         27.7902         27.7816         27.7687         27.7513         27.7296         27.7033         27.6724         27.6367         27.5962    
          27.5506         27.4998         27.4436         27.3816         27.3136         27.2393         27.1582         27.0700         26.9740         26.8695    
          26.7559         26.6321         26.4970         26.3491         26.1865         26.0066         25.8059         25.5793         25.3189         25.0108    
  26      27.7945         27.7902         27.7816         27.7687         27.7513         27.7296         27.7033         27.6724         27.6367         27.5962    
          27.5506         27.4998         27.4436         27.3816         27.3136         27.2393         27.1582         27.0700         26.9740         26.8695    
          26.7559         26.6321         26.4970         26.3491         26.1865         26.0066         25.8059         25.5793         25.3189         25.0108    
  27      27.7945         27.7902         27.7816         27.7687         27.7513         27.7296         27.7033         27.6724         27.6367         27.5962    
          27.5506         27.4998         27.4436         27.3816         27.3136         27.2393         27.1582         27.0700         26.9740         26.8695    
          26.7559         26.6321         26.4970         26.3491         26.1865         26.0066         25.8059         25.5793         25.3189         25.0108    
  28      27.7945         27.7902         27.7816         27.7687         27.7513         27.7296         27.7033         27.6724         27.6367         27.5962    
          27.5506         27.4998         27.4436         27.3816         27.3136         27.2393         27.1582         27.0700         26.9740         26.8695    
          26.7559         26.6321         26.4970         26.3491         26.1865         26.0066         25.8059         25.5793         25.3189         25.0108    
  29      27.7945         27.7902         27.7816         27.7687         27.7513         27.7296         27.7033         27.6724         27.6367         27.5962    
          27.5506         27.4998         27.4436         27.3816         27.3136         27.2393         27.1582         27.0700         26.9740         26.8695    
          26.7559         26.6321         26.4970         26.3491         26.1865         26.0066         25.8059         25.5793         25.3189         25.0108    
  30      27.7945         27.7902         27.7816         27.7687         27.7513         27.7296         27.7033         27.6724         27.6367         27.5962    
          27.5506         27.4998         27.4436         27.3816         27.3136         27.2393         27.1582         27.0700         26.9740         26.8695    
          26.7559         26.6321         26.4970         26.3491         26.1865         26.0066         25.8059         25.5793         25.3189         25.0108    

 HEAD WILL BE SAVED ON UNIT 1019 AT END OF TIME STEP   10, STRESS PERIOD   23


  VOLUME BUDGET FOR ENTIRE MODEL AT END OF TIME STEP   10, STRESS PERIOD  23
  ---------------------------------------------------------------------------------------------------

     CUMULATIVE VOLUME      L**3       RATES FOR THIS TIME STEP      L**3/T          PACKAGE NAME    
     ------------------                 ------------------------                     ----------------

           IN:                                      IN:
           ---                                      ---
              STO-SS =          37.4727                STO-SS =           0.0000     STORAGE         
              STO-SY =       24038.6081                STO-SY =           0.0000     STORAGE         
                 RCH =      105353.4600                   RCH =         214.5203     RCHA            
                 CHD =        1305.4009                   CHD =           0.0000     CHD             

            TOTAL IN =      130734.9417              TOTAL IN =         214.5203

          OUT:                                     OUT:
          ----                                     ----
              STO-SS =          29.2869                STO-SS =       6.7152E-02     STORAGE         
              STO-SY =       19123.9858                STO-SY =          42.4276     STORAGE         
                 RCH =           0.0000                   RCH =           0.0000     RCHA            
                 CHD =      111581.2467                   CHD =         172.0280     CHD             

           TOTAL OUT =      130734.5194             TOTAL OUT =         214.5228

            IN - OUT =           0.4223              IN - OUT =      -2.5187E-03

 PERCENT DISCREPANCY =           0.00     PERCENT DISCREPANCY =          -0.00




         TIME SUMMARY AT END OF TIME STEP   10 IN STRESS PERIOD   23
                    SECONDS     MINUTES      HOURS       DAYS        YEARS
                    -----------------------------------------------------------
   TIME STEP LENGTH 2.59200E+05  4320.0      72.000      3.0000     8.21355E-03
 STRESS PERIOD TIME 2.59200E+06  43200.      720.00      30.000     8.21355E-02
         TOTAL TIME 5.71104E+07 9.51840E+05  15864.      661.00      1.8097    

 OUTPUT CONTROL FOR STRESS PERIOD 24 IS REPEATED USING SETTINGS FROM A PREVIOUS STRESS PERIOD.


 STRESS PERIOD 24 IS TRANSIENT


                 RECHARGE =  0.2739730E-02
 UBDSV1 SAVING           STO-SS ON UNIT   1018 AT TIME STEP      1, STRESS PERIOD     24
 UBDSV1 SAVING           STO-SY ON UNIT   1018 AT TIME STEP      1, STRESS PERIOD     24
 UBDSV1 SAVING     FLOW-JA-FACE ON UNIT   1018 AT TIME STEP      1, STRESS PERIOD     24
 UBDSV06 SAVING              RCH IN MODEL TEST_TRANS       PACKAGE TEST_TRANS      CONNECTED TO MODEL TEST_TRANS       PACKAGE RCHA             ON UNIT   1018 AT TIME STEP      1, STRESS PERIOD     24
 UBDSV06 SAVING              CHD IN MODEL TEST_TRANS       PACKAGE TEST_TRANS      CONNECTED TO MODEL TEST_TRANS       PACKAGE CHD              ON UNIT   1018 AT TIME STEP      1, STRESS PERIOD     24
1
  HEAD IN LAYER   1 AT END OF TIME STEP   1 IN STRESS PERIOD   24
  ---------------------------------------------------------------------------

                1               2               3               4               5               6               7               8               9              10
               11              12              13              14              15              16              17              18              19              20
               21              22              23              24              25              26              27              28              29              30
 ................................................................................................................................................................
   1      27.8087         27.8044         27.7957         27.7827         27.7653         27.7435         27.7171         27.6860         27.6502         27.6094    
          27.5637         27.5126         27.4561         27.3938         27.3255         27.2508         27.1692         27.0804         26.9836         26.8782    
          26.7631         26.6372         26.4989         26.3458         26.1745         25.9797         25.7521         25.4741         25.1059         24.5204    
   2      27.8087         27.8044         27.7957         27.7827         27.7653         27.7435         27.7171         27.6860         27.6502         27.6094    
          27.5637         27.5126         27.4561         27.3938         27.3255         27.2508         27.1692         27.0804         26.9836         26.8782    
          26.7631         26.6372         26.4989         26.3458         26.1746         25.9797         25.7521         25.4740         25.1059         24.5204    
   3      27.8087         27.8044         27.7957         27.7827         27.7653         27.7435         27.7171         27.6860         27.6502         27.6094    
          27.5637         27.5126         27.4561         27.3938         27.3255         27.2508         27.1692         27.0804         26.9836         26.8782    
          26.7631         26.6372         26.4989         26.3458         26.1746         25.9797         25.7521         25.4740         25.1059         24.5204    
   4      27.8087         27.8044         27.7957         27.7827         27.7653         27.7435         27.7171         27.6860         27.6502         27.6094    
          27.5637         27.5126         27.4561         27.3938         27.3255         27.2508         27.1692         27.0804         26.9836         26.8782    
          26.7631         26.6372         26.4989         26.3458         26.1746         25.9797         25.7521         25.4740         25.1059         24.5204    
   5      27.8087         27.8044         27.7957         27.7827         27.7653         27.7435         27.7171         27.6860         27.6502         27.6094    
          27.5637         27.5126         27.4561         27.3938         27.3255         27.2508         27.1692         27.0804         26.9836         26.8782    
          26.7631         26.6372         26.4989         26.3458         26.1746         25.9797         25.7521         25.4741         25.1059         24.5204    
   6      27.8087         27.8044         27.7957         27.7827         27.7653         27.7435         27.7171         27.6860         27.6502         27.6094    
          27.5636         27.5126         27.4561         27.3938         27.3255         27.2508         27.1692         27.0804         26.9836         26.8782    
          26.7631         26.6372         26.4989         26.3458         26.1746         25.9797         25.7521         25.4741         25.1059         24.5204    
   7      27.8087         27.8044         27.7957         27.7827         27.7653         27.7435         27.7171         27.6860         27.6502         27.6094    
          27.5636         27.5126         27.4561         27.3938         27.3255         27.2508         27.1692         27.0804         26.9836         26.8782    
          26.7631         26.6372         26.4989         26.3458         26.1746         25.9797         25.7521         25.4741         25.1059         24.5204    
   8      27.8087         27.8044         27.7957         27.7827         27.7653         27.7435         27.7171         27.6860         27.6502         27.6094    
          27.5636         27.5126         27.4561         27.3938         27.3255         27.2508         27.1692         27.0804         26.9836         26.8782    
          26.7631         26.6372         26.4989         26.3458         26.1746         25.9797         25.7521         25.4740         25.1059         24.5204    
   9      27.8087         27.8044         27.7957         27.7827         27.7653         27.7435         27.7171         27.6860         27.6502         27.6094    
          27.5636         27.5126         27.4561         27.3938         27.3255         27.2508         27.1692         27.0804         26.9836         26.8782    
          26.7631         26.6372         26.4989         26.3458         26.1746         25.9797         25.7521         25.4740         25.1059         24.5204    
  10      27.8087         27.8044         27.7957         27.7827         27.7653         27.7435         27.7170         27.6860         27.6502         27.6094    
          27.5636         27.5126         27.4561         27.3938         27.3255         27.2508         27.1692         27.0804         26.9836         26.8782    
          26.7631         26.6372         26.4989         26.3458         26.1746         25.9797         25.7521         25.4740         25.1059         24.5204    
  11      27.8087         27.8044         27.7957         27.7827         27.7653         27.7435         27.7170         27.6860         27.6502         27.6094    
          27.5636         27.5126         27.4561         27.3938         27.3255         27.2508         27.1692         27.0804         26.9836         26.8782    
          26.7631         26.6372         26.4989         26.3458         26.1746         25.9797         25.7521         25.4740         25.1059         24.5204    
  12      27.8087         27.8044         27.7957         27.7827         27.7653         27.7435         27.7170         27.6860         27.6502         27.6094    
          27.5636         27.5126         27.4561         27.3938         27.3255         27.2508         27.1692         27.0804         26.9836         26.8782    
          26.7631         26.6372         26.4989         26.3458         26.1746         25.9797         25.7521         25.4740         25.1059         24.5204    
  13      27.8087         27.8044         27.7957         27.7827         27.7653         27.7435         27.7170         27.6860         27.6502         27.6094    
          27.5636         27.5126         27.4561         27.3938         27.3255         27.2508         27.1692         27.0804         26.9836         26.8782    
          26.7631         26.6372         26.4989         26.3458         26.1746         25.9797         25.7521         25.4740         25.1059         24.5204    
  14      27.8087         27.8044         27.7957         27.7827         27.7653         27.7435         27.7170         27.6860         27.6502         27.6094    
          27.5636         27.5126         27.4561         27.3938         27.3255         27.2508         27.1692         27.0804         26.9836         26.8782    
          26.7631         26.6372         26.4989         26.3458         26.1746         25.9797         25.7521         25.4740         25.1059         24.5204    
  15      27.8087         27.8044         27.7957         27.7827         27.7653         27.7435         27.7170         27.6860         27.6502         27.6094    
          27.5636         27.5126         27.4561         27.3938         27.3255         27.2508         27.1692         27.0804         26.9836         26.8782    
          26.7631         26.6372         26.4989         26.3458         26.1746         25.9797         25.7521         25.4740         25.1059         24.5204    
  16      27.8087         27.8044         27.7957         27.7827         27.7653         27.7435         27.7170         27.6860         27.6502         27.6094    
          27.5636         27.5126         27.4561         27.3938         27.3255         27.2508         27.1692         27.0804         26.9836         26.8782    
          26.7631         26.6372         26.4989         26.3458         26.1746         25.9797         25.7521         25.4740         25.1059         24.5204    
  17      27.8087         27.8044         27.7957         27.7827         27.7653         27.7435         27.7170         27.6860         27.6502         27.6094    
          27.5636         27.5126         27.4561         27.3938         27.3255         27.2508         27.1692         27.0804         26.9836         26.8782    
          26.7631         26.6372         26.4989         26.3458         26.1746         25.9797         25.7521         25.4740         25.1059         24.5204    
  18      27.8087         27.8044         27.7957         27.7827         27.7653         27.7435         27.7170         27.6860         27.6502         27.6094    
          27.5636         27.5126         27.4561         27.3938         27.3255         27.2508         27.1692         27.0804         26.9836         26.8782    
          26.7631         26.6372         26.4989         26.3458         26.1746         25.9797         25.7521         25.4740         25.1059         24.5204    
  19      27.8087         27.8044         27.7957         27.7827         27.7653         27.7435         27.7170         27.6860         27.6502         27.6094    
          27.5636         27.5126         27.4561         27.3938         27.3255         27.2508         27.1692         27.0804         26.9836         26.8781    
          26.7631         26.6372         26.4989         26.3458         26.1746         25.9797         25.7521         25.4740         25.1059         24.5204    
  20      27.8087         27.8044         27.7957         27.7827         27.7653         27.7435         27.7170         27.6860         27.6502         27.6094    
          27.5636         27.5126         27.4561         27.3938         27.3255         27.2508         27.1692         27.0804         26.9836         26.8781    
          26.7631         26.6372         26.4989         26.3458         26.1746         25.9797         25.7521         25.4740         25.1059         24.5204    
  21      27.8087         27.8044         27.7957         27.7827         27.7653         27.7435         27.7170         27.6860         27.6502         27.6094    
          27.5636         27.5126         27.4561         27.3938         27.3255         27.2508         27.1692         27.0804         26.9836         26.8781    
          26.7631         26.6372         26.4989         26.3458         26.1746         25.9797         25.7521         25.4740         25.1059         24.5204    
  22      27.8087         27.8044         27.7957         27.7827         27.7653         27.7435         27.7170         27.6860         27.6502         27.6094    
          27.5636         27.5126         27.4561         27.3938         27.3255         27.2508         27.1692         27.0804         26.9836         26.8781    
          26.7631         26.6372         26.4989         26.3458         26.1746         25.9797         25.7521         25.4740         25.1059         24.5204    
  23      27.8087         27.8044         27.7957         27.7827         27.7653         27.7435         27.7170         27.6860         27.6502         27.6094    
          27.5636         27.5126         27.4561         27.3938         27.3255         27.2508         27.1692         27.0804         26.9836         26.8781    
          26.7631         26.6372         26.4989         26.3458         26.1746         25.9797         25.7521         25.4740         25.1059         24.5204    
  24      27.8087         27.8044         27.7957         27.7827         27.7653         27.7435         27.7170         27.6860         27.6502         27.6094    
          27.5636         27.5126         27.4561         27.3938         27.3255         27.2508         27.1692         27.0804         26.9836         26.8781    
          26.7631         26.6372         26.4989         26.3458         26.1746         25.9797         25.7521         25.4740         25.1059         24.5204    
  25      27.8087         27.8044         27.7957         27.7827         27.7653         27.7435         27.7170         27.6860         27.6502         27.6094    
          27.5636         27.5126         27.4561         27.3938         27.3255         27.2508         27.1692         27.0804         26.9836         26.8781    
          26.7631         26.6372         26.4989         26.3458         26.1746         25.9797         25.7521         25.4740         25.1059         24.5204    
  26      27.8087         27.8044         27.7957         27.7827         27.7653         27.7435         27.7170         27.6860         27.6502         27.6094    
          27.5636         27.5126         27.4561         27.3938         27.3255         27.2508         27.1692         27.0804         26.9836         26.8781    
          26.7631         26.6372         26.4989         26.3458         26.1746         25.9797         25.7521         25.4740         25.1059         24.5204    
  27      27.8087         27.8044         27.7957         27.7827         27.7653         27.7435         27.7170         27.6860         27.6502         27.6094    
          27.5636         27.5126         27.4561         27.3938         27.3255         27.2508         27.1692         27.0804         26.9836         26.8781    
          26.7631         26.6372         26.4989         26.3458         26.1746         25.9797         25.7521         25.4740         25.1059         24.5204    
  28      27.8087         27.8044         27.7957         27.7827         27.7653         27.7435         27.7170         27.6860         27.6502         27.6094    
          27.5636         27.5126         27.4561         27.3938         27.3255         27.2508         27.1692         27.0804         26.9836         26.8781    
          26.7631         26.6372         26.4989         26.3458         26.1746         25.9797         25.7521         25.4740         25.1059         24.5204    
  29      27.8087         27.8044         27.7957         27.7827         27.7653         27.7435         27.7170         27.6860         27.6502         27.6094    
          27.5636         27.5126         27.4561         27.3938         27.3255         27.2508         27.1692         27.0804         26.9836         26.8781    
          26.7631         26.6372         26.4989         26.3458         26.1746         25.9797         25.7521         25.4740         25.1059         24.5204    
  30      27.8087         27.8044         27.7957         27.7827         27.7653         27.7435         27.7170         27.6860         27.6502         27.6094    
          27.5636         27.5126         27.4561         27.3938         27.3255         27.2508         27.1692         27.0804         26.9836         26.8781    
          26.7631         26.6372         26.4989         26.3458         26.1746         25.9797         25.7521         25.4740         25.1059         24.5204    

 HEAD WILL BE SAVED ON UNIT 1019 AT END OF TIME STEP    1, STRESS PERIOD   24



         TIME SUMMARY AT END OF TIME STEP    1 IN STRESS PERIOD   24
                    SECONDS     MINUTES      HOURS       DAYS        YEARS
                    -----------------------------------------------------------
   TIME STEP LENGTH 2.59200E+05  4320.0      72.000      3.0000     8.21355E-03
 STRESS PERIOD TIME 2.59200E+05  4320.0      72.000      3.0000     8.21355E-03
         TOTAL TIME 5.73696E+07 9.56160E+05  15936.      664.00      1.8179    
 UBDSV1 SAVING           STO-SS ON UNIT   1018 AT TIME STEP      2, STRESS PERIOD     24
 UBDSV1 SAVING           STO-SY ON UNIT   1018 AT TIME STEP      2, STRESS PERIOD     24
 UBDSV1 SAVING     FLOW-JA-FACE ON UNIT   1018 AT TIME STEP      2, STRESS PERIOD     24
 UBDSV06 SAVING              RCH IN MODEL TEST_TRANS       PACKAGE TEST_TRANS      CONNECTED TO MODEL TEST_TRANS       PACKAGE RCHA             ON UNIT   1018 AT TIME STEP      2, STRESS PERIOD     24
 UBDSV06 SAVING              CHD IN MODEL TEST_TRANS       PACKAGE TEST_TRANS      CONNECTED TO MODEL TEST_TRANS       PACKAGE CHD              ON UNIT   1018 AT TIME STEP      2, STRESS PERIOD     24

 HEAD WILL BE SAVED ON UNIT 1019 AT END OF TIME STEP    2, STRESS PERIOD   24
 UBDSV1 SAVING           STO-SS ON UNIT   1018 AT TIME STEP      3, STRESS PERIOD     24
 UBDSV1 SAVING           STO-SY ON UNIT   1018 AT TIME STEP      3, STRESS PERIOD     24
 UBDSV1 SAVING     FLOW-JA-FACE ON UNIT   1018 AT TIME STEP      3, STRESS PERIOD     24
 UBDSV06 SAVING              RCH IN MODEL TEST_TRANS       PACKAGE TEST_TRANS      CONNECTED TO MODEL TEST_TRANS       PACKAGE RCHA             ON UNIT   1018 AT TIME STEP      3, STRESS PERIOD     24
 UBDSV06 SAVING              CHD IN MODEL TEST_TRANS       PACKAGE TEST_TRANS      CONNECTED TO MODEL TEST_TRANS       PACKAGE CHD              ON UNIT   1018 AT TIME STEP      3, STRESS PERIOD     24

 HEAD WILL BE SAVED ON UNIT 1019 AT END OF TIME STEP    3, STRESS PERIOD   24
 UBDSV1 SAVING           STO-SS ON UNIT   1018 AT TIME STEP      4, STRESS PERIOD     24
 UBDSV1 SAVING           STO-SY ON UNIT   1018 AT TIME STEP      4, STRESS PERIOD     24
 UBDSV1 SAVING     FLOW-JA-FACE ON UNIT   1018 AT TIME STEP      4, STRESS PERIOD     24
 UBDSV06 SAVING              RCH IN MODEL TEST_TRANS       PACKAGE TEST_TRANS      CONNECTED TO MODEL TEST_TRANS       PACKAGE RCHA             ON UNIT   1018 AT TIME STEP      4, STRESS PERIOD     24
 UBDSV06 SAVING              CHD IN MODEL TEST_TRANS       PACKAGE TEST_TRANS      CONNECTED TO MODEL TEST_TRANS       PACKAGE CHD              ON UNIT   1018 AT TIME STEP      4, STRESS PERIOD     24

 HEAD WILL BE SAVED ON UNIT 1019 AT END OF TIME STEP    4, STRESS PERIOD   24
 UBDSV1 SAVING           STO-SS ON UNIT   1018 AT TIME STEP      5, STRESS PERIOD     24
 UBDSV1 SAVING           STO-SY ON UNIT   1018 AT TIME STEP      5, STRESS PERIOD     24
 UBDSV1 SAVING     FLOW-JA-FACE ON UNIT   1018 AT TIME STEP      5, STRESS PERIOD     24
 UBDSV06 SAVING              RCH IN MODEL TEST_TRANS       PACKAGE TEST_TRANS      CONNECTED TO MODEL TEST_TRANS       PACKAGE RCHA             ON UNIT   1018 AT TIME STEP      5, STRESS PERIOD     24
 UBDSV06 SAVING              CHD IN MODEL TEST_TRANS       PACKAGE TEST_TRANS      CONNECTED TO MODEL TEST_TRANS       PACKAGE CHD              ON UNIT   1018 AT TIME STEP      5, STRESS PERIOD     24

 HEAD WILL BE SAVED ON UNIT 1019 AT END OF TIME STEP    5, STRESS PERIOD   24
 UBDSV1 SAVING           STO-SS ON UNIT   1018 AT TIME STEP      6, STRESS PERIOD     24
 UBDSV1 SAVING           STO-SY ON UNIT   1018 AT TIME STEP      6, STRESS PERIOD     24
 UBDSV1 SAVING     FLOW-JA-FACE ON UNIT   1018 AT TIME STEP      6, STRESS PERIOD     24
 UBDSV06 SAVING              RCH IN MODEL TEST_TRANS       PACKAGE TEST_TRANS      CONNECTED TO MODEL TEST_TRANS       PACKAGE RCHA             ON UNIT   1018 AT TIME STEP      6, STRESS PERIOD     24
 UBDSV06 SAVING              CHD IN MODEL TEST_TRANS       PACKAGE TEST_TRANS      CONNECTED TO MODEL TEST_TRANS       PACKAGE CHD              ON UNIT   1018 AT TIME STEP      6, STRESS PERIOD     24

 HEAD WILL BE SAVED ON UNIT 1019 AT END OF TIME STEP    6, STRESS PERIOD   24
 UBDSV1 SAVING           STO-SS ON UNIT   1018 AT TIME STEP      7, STRESS PERIOD     24
 UBDSV1 SAVING           STO-SY ON UNIT   1018 AT TIME STEP      7, STRESS PERIOD     24
 UBDSV1 SAVING     FLOW-JA-FACE ON UNIT   1018 AT TIME STEP      7, STRESS PERIOD     24
 UBDSV06 SAVING              RCH IN MODEL TEST_TRANS       PACKAGE TEST_TRANS      CONNECTED TO MODEL TEST_TRANS       PACKAGE RCHA             ON UNIT   1018 AT TIME STEP      7, STRESS PERIOD     24
 UBDSV06 SAVING              CHD IN MODEL TEST_TRANS       PACKAGE TEST_TRANS      CONNECTED TO MODEL TEST_TRANS       PACKAGE CHD              ON UNIT   1018 AT TIME STEP      7, STRESS PERIOD     24

 HEAD WILL BE SAVED ON UNIT 1019 AT END OF TIME STEP    7, STRESS PERIOD   24
 UBDSV1 SAVING           STO-SS ON UNIT   1018 AT TIME STEP      8, STRESS PERIOD     24
 UBDSV1 SAVING           STO-SY ON UNIT   1018 AT TIME STEP      8, STRESS PERIOD     24
 UBDSV1 SAVING     FLOW-JA-FACE ON UNIT   1018 AT TIME STEP      8, STRESS PERIOD     24
 UBDSV06 SAVING              RCH IN MODEL TEST_TRANS       PACKAGE TEST_TRANS      CONNECTED TO MODEL TEST_TRANS       PACKAGE RCHA             ON UNIT   1018 AT TIME STEP      8, STRESS PERIOD     24
 UBDSV06 SAVING              CHD IN MODEL TEST_TRANS       PACKAGE TEST_TRANS      CONNECTED TO MODEL TEST_TRANS       PACKAGE CHD              ON UNIT   1018 AT TIME STEP      8, STRESS PERIOD     24

 HEAD WILL BE SAVED ON UNIT 1019 AT END OF TIME STEP    8, STRESS PERIOD   24
 UBDSV1 SAVING           STO-SS ON UNIT   1018 AT TIME STEP      9, STRESS PERIOD     24
 UBDSV1 SAVING           STO-SY ON UNIT   1018 AT TIME STEP      9, STRESS PERIOD     24
 UBDSV1 SAVING     FLOW-JA-FACE ON UNIT   1018 AT TIME STEP      9, STRESS PERIOD     24
 UBDSV06 SAVING              RCH IN MODEL TEST_TRANS       PACKAGE TEST_TRANS      CONNECTED TO MODEL TEST_TRANS       PACKAGE RCHA             ON UNIT   1018 AT TIME STEP      9, STRESS PERIOD     24
 UBDSV06 SAVING              CHD IN MODEL TEST_TRANS       PACKAGE TEST_TRANS      CONNECTED TO MODEL TEST_TRANS       PACKAGE CHD              ON UNIT   1018 AT TIME STEP      9, STRESS PERIOD     24

 HEAD WILL BE SAVED ON UNIT 1019 AT END OF TIME STEP    9, STRESS PERIOD   24
 UBDSV1 SAVING           STO-SS ON UNIT   1018 AT TIME STEP     10, STRESS PERIOD     24
 UBDSV1 SAVING           STO-SY ON UNIT   1018 AT TIME STEP     10, STRESS PERIOD     24
 UBDSV1 SAVING     FLOW-JA-FACE ON UNIT   1018 AT TIME STEP     10, STRESS PERIOD     24
 UBDSV06 SAVING              RCH IN MODEL TEST_TRANS       PACKAGE TEST_TRANS      CONNECTED TO MODEL TEST_TRANS       PACKAGE RCHA             ON UNIT   1018 AT TIME STEP     10, STRESS PERIOD     24
 UBDSV06 SAVING              CHD IN MODEL TEST_TRANS       PACKAGE TEST_TRANS      CONNECTED TO MODEL TEST_TRANS       PACKAGE CHD              ON UNIT   1018 AT TIME STEP     10, STRESS PERIOD     24
1
  HEAD IN LAYER   1 AT END OF TIME STEP  10 IN STRESS PERIOD   24
  ---------------------------------------------------------------------------

                1               2               3               4               5               6               7               8               9              10
               11              12              13              14              15              16              17              18              19              20
               21              22              23              24              25              26              27              28              29              30
 ................................................................................................................................................................
   1      27.9253         27.9207         27.9115         27.8976         27.8791         27.8557         27.8274         27.7941         27.7556         27.7117    
          27.6622         27.6069         27.5454         27.4774         27.4024         27.3200         27.2296         27.1306         27.0220         26.9030    
          26.7724         26.6288         26.4703         26.2945         26.0985         25.8778         25.6260         25.3329         24.9794         24.5204    
   2      27.9253         27.9207         27.9115         27.8976         27.8791         27.8557         27.8274         27.7941         27.7556         27.7117    
          27.6622         27.6069         27.5454         27.4774         27.4024         27.3200         27.2296         27.1306         27.0220         26.9030    
          26.7724         26.6288         26.4703         26.2945         26.0985         25.8778         25.6260         25.3329         24.9794         24.5204    
   3      27.9253         27.9207         27.9115         27.8976         27.8791         27.8557         27.8274         27.7941         27.7556         27.7117    
          27.6622         27.6069         27.5454         27.4774         27.4024         27.3200         27.2296         27.1306         27.0220         26.9030    
          26.7724         26.6288         26.4703         26.2945         26.0985         25.8778         25.6260         25.3329         24.9794         24.5204    
   4      27.9253         27.9207         27.9115         27.8976         27.8791         27.8557         27.8274         27.7941         27.7556         27.7117    
          27.6622         27.6069         27.5454         27.4774         27.4024         27.3200         27.2296         27.1306         27.0220         26.9030    
          26.7724         26.6288         26.4703         26.2945         26.0985         25.8778         25.6260         25.3329         24.9794         24.5204    
   5      27.9253         27.9207         27.9115         27.8976         27.8791         27.8557         27.8274         27.7941         27.7556         27.7117    
          27.6622         27.6069         27.5454         27.4774         27.4024         27.3200         27.2296         27.1306         27.0220         26.9030    
          26.7724         26.6288         26.4703         26.2945         26.0985         25.8778         25.6260         25.3329         24.9794         24.5204    
   6      27.9253         27.9207         27.9115         27.8976         27.8791         27.8557         27.8274         27.7941         27.7556         27.7117    
          27.6622         27.6069         27.5454         27.4774         27.4024         27.3200         27.2296         27.1306         27.0220         26.9030    
          26.7724         26.6288         26.4703         26.2945         26.0985         25.8778         25.6260         25.3329         24.9794         24.5204    
   7      27.9253         27.9207         27.9115         27.8976         27.8791         27.8557         27.8274         27.7941         27.7556         27.7117    
          27.6622         27.6069         27.5454         27.4774         27.4024         27.3200         27.2296         27.1306         27.0220         26.9030    
          26.7724         26.6288         26.4703         26.2945         26.0985         25.8778         25.6260         25.3329         24.9794         24.5204    
   8      27.9253         27.9207         27.9115         27.8976         27.8791         27.8557         27.8274         27.7941         27.7556         27.7117    
          27.6622         27.6069         27.5454         27.4774         27.4024         27.3200         27.2296         27.1306         27.0220         26.9030    
          26.7724         26.6288         26.4703         26.2945         26.0985         25.8778         25.6260         25.3329         24.9794         24.5204    
   9      27.9253         27.9207         27.9115         27.8976         27.8791         27.8557         27.8274         27.7941         27.7556         27.7117    
          27.6622         27.6069         27.5454         27.4774         27.4024         27.3200         27.2296         27.1306         27.0220         26.9030    
          26.7724         26.6288         26.4703         26.2945         26.0985         25.8778         25.6260         25.3329         24.9794         24.5204    
  10      27.9253         27.9207         27.9115         27.8976         27.8791         27.8557         27.8274         27.7941         27.7556         27.7117    
          27.6622         27.6069         27.5454         27.4774         27.4024         27.3200         27.2296         27.1306         27.0220         26.9030    
          26.7724         26.6288         26.4703         26.2945         26.0985         25.8778         25.6260         25.3329         24.9794         24.5204    
  11      27.9253         27.9207         27.9115         27.8976         27.8791         27.8557         27.8274         27.7941         27.7556         27.7117    
          27.6622         27.6069         27.5454         27.4774         27.4024         27.3200         27.2296         27.1306         27.0220         26.9030    
          26.7724         26.6288         26.4703         26.2945         26.0985         25.8778         25.6260         25.3329         24.9794         24.5204    
  12      27.9253         27.9207         27.9115         27.8976         27.8791         27.8557         27.8274         27.7941         27.7556         27.7117    
          27.6622         27.6069         27.5454         27.4774         27.4024         27.3200         27.2296         27.1306         27.0220         26.9030    
          26.7724         26.6288         26.4703         26.2945         26.0985         25.8778         25.6260         25.3329         24.9794         24.5204    
  13      27.9253         27.9207         27.9115         27.8976         27.8791         27.8557         27.8274         27.7941         27.7556         27.7117    
          27.6622         27.6069         27.5454         27.4774         27.4024         27.3200         27.2296         27.1306         27.0220         26.9030    
          26.7724         26.6288         26.4703         26.2945         26.0985         25.8778         25.6260         25.3329         24.9794         24.5204    
  14      27.9253         27.9207         27.9115         27.8976         27.8791         27.8557         27.8274         27.7941         27.7556         27.7117    
          27.6622         27.6069         27.5454         27.4774         27.4024         27.3200         27.2296         27.1306         27.0220         26.9030    
          26.7724         26.6288         26.4703         26.2945         26.0985         25.8778         25.6260         25.3329         24.9794         24.5204    
  15      27.9253         27.9207         27.9115         27.8976         27.8791         27.8557         27.8274         27.7941         27.7556         27.7117    
          27.6622         27.6069         27.5454         27.4774         27.4024         27.3200         27.2296         27.1306         27.0220         26.9030    
          26.7724         26.6288         26.4703         26.2945         26.0985         25.8778         25.6260         25.3329         24.9794         24.5204    
  16      27.9253         27.9207         27.9115         27.8976         27.8791         27.8557         27.8274         27.7941         27.7556         27.7117    
          27.6622         27.6069         27.5454         27.4774         27.4024         27.3200         27.2296         27.1306         27.0220         26.9030    
          26.7724         26.6288         26.4703         26.2945         26.0985         25.8778         25.6260         25.3329         24.9794         24.5204    
  17      27.9253         27.9207         27.9115         27.8976         27.8791         27.8557         27.8274         27.7941         27.7556         27.7117    
          27.6622         27.6069         27.5454         27.4774         27.4024         27.3200         27.2296         27.1306         27.0220         26.9030    
          26.7724         26.6288         26.4703         26.2945         26.0985         25.8778         25.6260         25.3329         24.9794         24.5204    
  18      27.9253         27.9207         27.9115         27.8976         27.8791         27.8557         27.8274         27.7941         27.7556         27.7117    
          27.6622         27.6069         27.5454         27.4774         27.4024         27.3200         27.2296         27.1306         27.0220         26.9030    
          26.7724         26.6288         26.4703         26.2945         26.0985         25.8778         25.6260         25.3329         24.9794         24.5204    
  19      27.9253         27.9207         27.9115         27.8976         27.8791         27.8557         27.8274         27.7941         27.7556         27.7117    
          27.6622         27.6069         27.5454         27.4774         27.4024         27.3200         27.2296         27.1306         27.0220         26.9030    
          26.7724         26.6288         26.4703         26.2945         26.0985         25.8778         25.6260         25.3329         24.9794         24.5204    
  20      27.9253         27.9207         27.9115         27.8976         27.8791         27.8557         27.8274         27.7941         27.7556         27.7117    
          27.6622         27.6069         27.5454         27.4774         27.4024         27.3200         27.2296         27.1306         27.0220         26.9030    
          26.7724         26.6288         26.4703         26.2945         26.0985         25.8778         25.6260         25.3329         24.9794         24.5204    
  21      27.9253         27.9207         27.9115         27.8976         27.8791         27.8557         27.8274         27.7941         27.7556         27.7117    
          27.6622         27.6069         27.5454         27.4774         27.4024         27.3200         27.2296         27.1306         27.0220         26.9030    
          26.7724         26.6288         26.4703         26.2945         26.0985         25.8778         25.6260         25.3329         24.9794         24.5204    
  22      27.9253         27.9207         27.9115         27.8976         27.8791         27.8557         27.8274         27.7941         27.7556         27.7117    
          27.6622         27.6069         27.5454         27.4774         27.4024         27.3200         27.2296         27.1306         27.0220         26.9030    
          26.7724         26.6288         26.4703         26.2945         26.0985         25.8778         25.6260         25.3329         24.9794         24.5204    
  23      27.9253         27.9207         27.9115         27.8976         27.8791         27.8557         27.8274         27.7941         27.7556         27.7117    
          27.6622         27.6069         27.5454         27.4774         27.4024         27.3200         27.2296         27.1306         27.0220         26.9030    
          26.7724         26.6288         26.4703         26.2945         26.0985         25.8778         25.6260         25.3329         24.9794         24.5204    
  24      27.9253         27.9207         27.9115         27.8976         27.8791         27.8557         27.8274         27.7941         27.7556         27.7117    
          27.6622         27.6069         27.5454         27.4774         27.4024         27.3200         27.2296         27.1306         27.0220         26.9030    
          26.7724         26.6288         26.4703         26.2945         26.0985         25.8778         25.6260         25.3329         24.9794         24.5204    
  25      27.9253         27.9207         27.9115         27.8976         27.8791         27.8557         27.8274         27.7941         27.7556         27.7117    
          27.6622         27.6069         27.5454         27.4774         27.4024         27.3200         27.2296         27.1306         27.0220         26.9030    
          26.7724         26.6288         26.4703         26.2945         26.0985         25.8778         25.6260         25.3329         24.9794         24.5204    
  26      27.9253         27.9207         27.9115         27.8976         27.8791         27.8557         27.8274         27.7941         27.7556         27.7117    
          27.6622         27.6069         27.5454         27.4774         27.4024         27.3200         27.2296         27.1306         27.0220         26.9030    
          26.7724         26.6288         26.4703         26.2945         26.0985         25.8778         25.6260         25.3329         24.9794         24.5204    
  27      27.9253         27.9207         27.9115         27.8976         27.8791         27.8557         27.8274         27.7941         27.7556         27.7117    
          27.6622         27.6069         27.5454         27.4774         27.4024         27.3200         27.2296         27.1306         27.0220         26.9030    
          26.7724         26.6288         26.4703         26.2945         26.0985         25.8778         25.6260         25.3329         24.9794         24.5204    
  28      27.9253         27.9207         27.9115         27.8976         27.8791         27.8557         27.8274         27.7941         27.7556         27.7117    
          27.6622         27.6069         27.5454         27.4774         27.4024         27.3200         27.2296         27.1306         27.0220         26.9030    
          26.7724         26.6288         26.4703         26.2945         26.0985         25.8778         25.6260         25.3329         24.9794         24.5204    
  29      27.9253         27.9207         27.9115         27.8976         27.8791         27.8557         27.8274         27.7941         27.7556         27.7117    
          27.6622         27.6069         27.5454         27.4774         27.4024         27.3200         27.2296         27.1306         27.0220         26.9030    
          26.7724         26.6288         26.4703         26.2945         26.0985         25.8778         25.6260         25.3329         24.9794         24.5204    
  30      27.9253         27.9207         27.9115         27.8976         27.8791         27.8557         27.8274         27.7941         27.7556         27.7117    
          27.6622         27.6069         27.5454         27.4774         27.4024         27.3200         27.2296         27.1306         27.0220         26.9030    
          26.7724         26.6288         26.4703         26.2945         26.0985         25.8778         25.6260         25.3329         24.9794         24.5204    

 HEAD WILL BE SAVED ON UNIT 1019 AT END OF TIME STEP   10, STRESS PERIOD   24


  VOLUME BUDGET FOR ENTIRE MODEL AT END OF TIME STEP   10, STRESS PERIOD  24
  ---------------------------------------------------------------------------------------------------

     CUMULATIVE VOLUME      L**3       RATES FOR THIS TIME STEP      L**3/T          PACKAGE NAME    
     ------------------                 ------------------------                     ----------------

           IN:                                      IN:
           ---                                      ---
              STO-SS =          38.3834                STO-SS =       1.9171E-03     STORAGE         
              STO-SY =       24684.5212                STO-SY =           1.3551     STORAGE         
                 RCH =      112504.1553                   RCH =         238.3565     RCHA            
                 CHD =        1305.4009                   CHD =           0.0000     CHD             

            TOTAL IN =      138532.4608              TOTAL IN =         239.7136

          OUT:                                     OUT:
          ----                                     ----
              STO-SS =          31.2967                STO-SS =       5.6649E-02     STORAGE         
              STO-SY =       20371.5377                STO-SY =          35.0263     STORAGE         
                 RCH =           0.0000                   RCH =           0.0000     RCHA            
                 CHD =      118129.2166                   CHD =         204.6311     CHD             

           TOTAL OUT =      138532.0510             TOTAL OUT =         239.7141

            IN - OUT =           0.4098              IN - OUT =      -4.8887E-04

 PERCENT DISCREPANCY =           0.00     PERCENT DISCREPANCY =          -0.00




         TIME SUMMARY AT END OF TIME STEP   10 IN STRESS PERIOD   24
                    SECONDS     MINUTES      HOURS       DAYS        YEARS
                    -----------------------------------------------------------
   TIME STEP LENGTH 2.59200E+05  4320.0      72.000      3.0000     8.21355E-03
 STRESS PERIOD TIME 2.59200E+06  43200.      720.00      30.000     8.21355E-02
         TOTAL TIME 5.97024E+07 9.95040E+05  16584.      691.00      1.8919    

 OUTPUT CONTROL FOR STRESS PERIOD 25 IS REPEATED USING SETTINGS FROM A PREVIOUS STRESS PERIOD.


 STRESS PERIOD 25 IS TRANSIENT


                 RECHARGE =  0.2739730E-02
 UBDSV1 SAVING           STO-SS ON UNIT   1018 AT TIME STEP      1, STRESS PERIOD     25
 UBDSV1 SAVING           STO-SY ON UNIT   1018 AT TIME STEP      1, STRESS PERIOD     25
 UBDSV1 SAVING     FLOW-JA-FACE ON UNIT   1018 AT TIME STEP      1, STRESS PERIOD     25
 UBDSV06 SAVING              RCH IN MODEL TEST_TRANS       PACKAGE TEST_TRANS      CONNECTED TO MODEL TEST_TRANS       PACKAGE RCHA             ON UNIT   1018 AT TIME STEP      1, STRESS PERIOD     25
 UBDSV06 SAVING              CHD IN MODEL TEST_TRANS       PACKAGE TEST_TRANS      CONNECTED TO MODEL TEST_TRANS       PACKAGE CHD              ON UNIT   1018 AT TIME STEP      1, STRESS PERIOD     25
1
  HEAD IN LAYER   1 AT END OF TIME STEP   1 IN STRESS PERIOD   25
  ---------------------------------------------------------------------------

                1               2               3               4               5               6               7               8               9              10
               11              12              13              14              15              16              17              18              19              20
               21              22              23              24              25              26              27              28              29              30
 ................................................................................................................................................................
   1      27.9367         27.9321         27.9228         27.9088         27.8900         27.8664         27.8379         27.8043         27.7654         27.7211    
          27.6712         27.6153         27.5532         27.4846         27.4089         27.3258         27.2346         27.1347         27.0252         26.9051    
          26.7732         26.6280         26.4674         26.2887         26.0878         25.8590         25.5920         25.2680         24.8422         23.4467    
   2      27.9367         27.9321         27.9228         27.9088         27.8900         27.8664         27.8379         27.8043         27.7654         27.7211    
          27.6712         27.6153         27.5532         27.4846         27.4089         27.3258         27.2346         27.1347         27.0252         26.9051    
          26.7732         26.6280         26.4674         26.2887         26.0878         25.8590         25.5920         25.2680         24.8422         23.4467    
   3      27.9367         27.9321         27.9228         27.9088         27.8900         27.8664         27.8379         27.8043         27.7654         27.7211    
          27.6712         27.6153         27.5532         27.4846         27.4089         27.3258         27.2346         27.1347         27.0252         26.9051    
          26.7732         26.6280         26.4674         26.2887         26.0878         25.8590         25.5920         25.2680         24.8422         23.4467    
   4      27.9367         27.9321         27.9228         27.9088         27.8900         27.8664         27.8379         27.8043         27.7654         27.7211    
          27.6712         27.6153         27.5532         27.4846         27.4089         27.3258         27.2346         27.1347         27.0252         26.9051    
          26.7732         26.6280         26.4674         26.2887         26.0878         25.8590         25.5920         25.2680         24.8422         23.4467    
   5      27.9367         27.9321         27.9228         27.9088         27.8900         27.8664         27.8379         27.8043         27.7654         27.7211    
          27.6712         27.6153         27.5532         27.4846         27.4089         27.3258         27.2346         27.1347         27.0252         26.9051    
          26.7732         26.6280         26.4674         26.2887         26.0878         25.8590         25.5920         25.2680         24.8422         23.4467    
   6      27.9367         27.9321         27.9228         27.9088         27.8900         27.8664         27.8379         27.8043         27.7654         27.7211    
          27.6712         27.6153         27.5532         27.4846         27.4089         27.3258         27.2346         27.1347         27.0252         26.9051    
          26.7732         26.6280         26.4674         26.2887         26.0878         25.8590         25.5920         25.2680         24.8422         23.4467    
   7      27.9367         27.9321         27.9228         27.9088         27.8900         27.8664         27.8379         27.8043         27.7654         27.7211    
          27.6712         27.6153         27.5532         27.4846         27.4089         27.3258         27.2346         27.1347         27.0252         26.9051    
          26.7732         26.6280         26.4674         26.2887         26.0878         25.8590         25.5920         25.2680         24.8422         23.4467    
   8      27.9367         27.9321         27.9228         27.9088         27.8900         27.8664         27.8379         27.8043         27.7654         27.7211    
          27.6712         27.6153         27.5532         27.4846         27.4089         27.3258         27.2346         27.1347         27.0252         26.9051    
          26.7732         26.6280         26.4674         26.2887         26.0878         25.8590         25.5920         25.2680         24.8422         23.4467    
   9      27.9367         27.9321         27.9228         27.9088         27.8900         27.8664         27.8379         27.8043         27.7654         27.7211    
          27.6712         27.6153         27.5532         27.4846         27.4089         27.3258         27.2346         27.1347         27.0252         26.9051    
          26.7732         26.6280         26.4674         26.2887         26.0878         25.8590         25.5920         25.2680         24.8422         23.4467    
  10      27.9367         27.9321         27.9228         27.9088         27.8900         27.8664         27.8379         27.8043         27.7654         27.7211    
          27.6712         27.6153         27.5532         27.4846         27.4089         27.3258         27.2346         27.1347         27.0252         26.9051    
          26.7732         26.6280         26.4674         26.2887         26.0878         25.8590         25.5920         25.2680         24.8422         23.4467    
  11      27.9367         27.9321         27.9228         27.9088         27.8900         27.8664         27.8379         27.8043         27.7654         27.7211    
          27.6712         27.6153         27.5532         27.4846         27.4089         27.3258         27.2346         27.1347         27.0252         26.9051    
          26.7732         26.6280         26.4674         26.2887         26.0878         25.8590         25.5920         25.2680         24.8422         23.4467    
  12      27.9367         27.9321         27.9228         27.9088         27.8900         27.8664         27.8379         27.8043         27.7654         27.7211    
          27.6712         27.6153         27.5532         27.4846         27.4089         27.3258         27.2346         27.1347         27.0252         26.9051    
          26.7732         26.6280         26.4674         26.2887         26.0878         25.8590         25.5920         25.2680         24.8422         23.4467    
  13      27.9367         27.9321         27.9228         27.9088         27.8900         27.8664         27.8379         27.8043         27.7654         27.7211    
          27.6712         27.6153         27.5532         27.4846         27.4089         27.3258         27.2346         27.1347         27.0252         26.9051    
          26.7732         26.6280         26.4674         26.2887         26.0878         25.8590         25.5920         25.2680         24.8422         23.4467    
  14      27.9367         27.9321         27.9228         27.9088         27.8900         27.8664         27.8379         27.8043         27.7654         27.7211    
          27.6712         27.6153         27.5532         27.4846         27.4089         27.3258         27.2346         27.1347         27.0252         26.9051    
          26.7732         26.6280         26.4674         26.2887         26.0878         25.8590         25.5920         25.2680         24.8422         23.4467    
  15      27.9367         27.9321         27.9228         27.9088         27.8900         27.8664         27.8379         27.8043         27.7654         27.7211    
          27.6712         27.6153         27.5532         27.4846         27.4089         27.3258         27.2346         27.1347         27.0252         26.9051    
          26.7732         26.6280         26.4674         26.2887         26.0878         25.8590         25.5920         25.2680         24.8422         23.4467    
  16      27.9367         27.9321         27.9228         27.9088         27.8900         27.8664         27.8379         27.8043         27.7654         27.7211    
          27.6712         27.6153         27.5532         27.4846         27.4089         27.3258         27.2346         27.1347         27.0252         26.9051    
          26.7732         26.6280         26.4674         26.2887         26.0878         25.8590         25.5920         25.2680         24.8422         23.4467    
  17      27.9367         27.9321         27.9228         27.9088         27.8900         27.8664         27.8379         27.8043         27.7654         27.7211    
          27.6712         27.6153         27.5532         27.4846         27.4089         27.3258         27.2346         27.1347         27.0252         26.9051    
          26.7732         26.6280         26.4674         26.2887         26.0878         25.8590         25.5920         25.2680         24.8422         23.4467    
  18      27.9367         27.9321         27.9228         27.9088         27.8900         27.8664         27.8379         27.8043         27.7654         27.7211    
          27.6712         27.6153         27.5532         27.4846         27.4089         27.3258         27.2346         27.1347         27.0252         26.9051    
          26.7732         26.6280         26.4674         26.2887         26.0878         25.8590         25.5920         25.2680         24.8422         23.4467    
  19      27.9367         27.9321         27.9228         27.9088         27.8900         27.8664         27.8379         27.8043         27.7654         27.7211    
          27.6712         27.6153         27.5532         27.4846         27.4089         27.3258         27.2346         27.1347         27.0252         26.9051    
          26.7732         26.6280         26.4674         26.2887         26.0878         25.8590         25.5920         25.2680         24.8422         23.4467    
  20      27.9367         27.9321         27.9228         27.9088         27.8900         27.8664         27.8379         27.8043         27.7654         27.7211    
          27.6712         27.6153         27.5532         27.4846         27.4089         27.3258         27.2346         27.1347         27.0252         26.9051    
          26.7732         26.6280         26.4674         26.2887         26.0878         25.8590         25.5920         25.2680         24.8422         23.4467    
  21      27.9367         27.9321         27.9228         27.9088         27.8900         27.8664         27.8379         27.8043         27.7654         27.7211    
          27.6712         27.6153         27.5532         27.4846         27.4089         27.3258         27.2346         27.1347         27.0252         26.9051    
          26.7732         26.6280         26.4674         26.2887         26.0878         25.8590         25.5920         25.2680         24.8422         23.4467    
  22      27.9367         27.9321         27.9228         27.9088         27.8900         27.8664         27.8379         27.8043         27.7654         27.7211    
          27.6712         27.6153         27.5532         27.4846         27.4089         27.3258         27.2346         27.1347         27.0252         26.9051    
          26.7732         26.6280         26.4674         26.2887         26.0878         25.8590         25.5920         25.2680         24.8422         23.4467    
  23      27.9367         27.9321         27.9228         27.9088         27.8900         27.8664         27.8379         27.8043         27.7654         27.7211    
          27.6712         27.6153         27.5532         27.4846         27.4089         27.3258         27.2346         27.1347         27.0252         26.9051    
          26.7732         26.6280         26.4674         26.2887         26.0878         25.8590         25.5920         25.2680         24.8422         23.4467    
  24      27.9367         27.9321         27.9228         27.9088         27.8900         27.8664         27.8379         27.8043         27.7654         27.7211    
          27.6712         27.6153         27.5532         27.4846         27.4089         27.3258         27.2346         27.1347         27.0252         26.9051    
          26.7732         26.6280         26.4674         26.2887         26.0878         25.8590         25.5920         25.2680         24.8422         23.4467    
  25      27.9367         27.9321         27.9228         27.9088         27.8900         27.8664         27.8379         27.8043         27.7654         27.7211    
          27.6712         27.6153         27.5532         27.4846         27.4089         27.3258         27.2346         27.1347         27.0252         26.9051    
          26.7732         26.6280         26.4674         26.2887         26.0878         25.8590         25.5920         25.2680         24.8422         23.4467    
  26      27.9367         27.9321         27.9228         27.9088         27.8900         27.8664         27.8379         27.8043         27.7654         27.7211    
          27.6712         27.6153         27.5532         27.4846         27.4089         27.3258         27.2346         27.1347         27.0252         26.9051    
          26.7732         26.6280         26.4674         26.2887         26.0878         25.8590         25.5920         25.2680         24.8422         23.4467    
  27      27.9367         27.9321         27.9228         27.9088         27.8900         27.8664         27.8379         27.8043         27.7654         27.7211    
          27.6712         27.6153         27.5532         27.4846         27.4089         27.3258         27.2346         27.1347         27.0252         26.9051    
          26.7732         26.6280         26.4674         26.2887         26.0878         25.8590         25.5920         25.2680         24.8422         23.4467    
  28      27.9367         27.9321         27.9228         27.9088         27.8900         27.8664         27.8379         27.8043         27.7654         27.7211    
          27.6712         27.6153         27.5532         27.4846         27.4089         27.3258         27.2346         27.1347         27.0252         26.9051    
          26.7732         26.6280         26.4674         26.2887         26.0878         25.8590         25.5920         25.2680         24.8422         23.4467    
  29      27.9367         27.9321         27.9228         27.9088         27.8900         27.8664         27.8379         27.8043         27.7654         27.7211    
          27.6712         27.6153         27.5532         27.4846         27.4089         27.3258         27.2346         27.1347         27.0252         26.9051    
          26.7732         26.6280         26.4674         26.2887         26.0878         25.8590         25.5920         25.2680         24.8422         23.4467    
  30      27.9367         27.9321         27.9228         27.9088         27.8900         27.8664         27.8379         27.8043         27.7654         27.7211    
          27.6712         27.6153         27.5532         27.4846         27.4089         27.3258         27.2346         27.1347         27.0252         26.9051    
          26.7732         26.6280         26.4674         26.2887         26.0878         25.8590         25.5920         25.2680         24.8422         23.4467    

 HEAD WILL BE SAVED ON UNIT 1019 AT END OF TIME STEP    1, STRESS PERIOD   25



         TIME SUMMARY AT END OF TIME STEP    1 IN STRESS PERIOD   25
                    SECONDS     MINUTES      HOURS       DAYS        YEARS
                    -----------------------------------------------------------
   TIME STEP LENGTH 2.59200E+05  4320.0      72.000      3.0000     8.21355E-03
 STRESS PERIOD TIME 2.59200E+05  4320.0      72.000      3.0000     8.21355E-03
         TOTAL TIME 5.99616E+07 9.99360E+05  16656.      694.00      1.9001    
 UBDSV1 SAVING           STO-SS ON UNIT   1018 AT TIME STEP      2, STRESS PERIOD     25
 UBDSV1 SAVING           STO-SY ON UNIT   1018 AT TIME STEP      2, STRESS PERIOD     25
 UBDSV1 SAVING     FLOW-JA-FACE ON UNIT   1018 AT TIME STEP      2, STRESS PERIOD     25
 UBDSV06 SAVING              RCH IN MODEL TEST_TRANS       PACKAGE TEST_TRANS      CONNECTED TO MODEL TEST_TRANS       PACKAGE RCHA             ON UNIT   1018 AT TIME STEP      2, STRESS PERIOD     25
 UBDSV06 SAVING              CHD IN MODEL TEST_TRANS       PACKAGE TEST_TRANS      CONNECTED TO MODEL TEST_TRANS       PACKAGE CHD              ON UNIT   1018 AT TIME STEP      2, STRESS PERIOD     25

 HEAD WILL BE SAVED ON UNIT 1019 AT END OF TIME STEP    2, STRESS PERIOD   25
 UBDSV1 SAVING           STO-SS ON UNIT   1018 AT TIME STEP      3, STRESS PERIOD     25
 UBDSV1 SAVING           STO-SY ON UNIT   1018 AT TIME STEP      3, STRESS PERIOD     25
 UBDSV1 SAVING     FLOW-JA-FACE ON UNIT   1018 AT TIME STEP      3, STRESS PERIOD     25
 UBDSV06 SAVING              RCH IN MODEL TEST_TRANS       PACKAGE TEST_TRANS      CONNECTED TO MODEL TEST_TRANS       PACKAGE RCHA             ON UNIT   1018 AT TIME STEP      3, STRESS PERIOD     25
 UBDSV06 SAVING              CHD IN MODEL TEST_TRANS       PACKAGE TEST_TRANS      CONNECTED TO MODEL TEST_TRANS       PACKAGE CHD              ON UNIT   1018 AT TIME STEP      3, STRESS PERIOD     25

 HEAD WILL BE SAVED ON UNIT 1019 AT END OF TIME STEP    3, STRESS PERIOD   25
 UBDSV1 SAVING           STO-SS ON UNIT   1018 AT TIME STEP      4, STRESS PERIOD     25
 UBDSV1 SAVING           STO-SY ON UNIT   1018 AT TIME STEP      4, STRESS PERIOD     25
 UBDSV1 SAVING     FLOW-JA-FACE ON UNIT   1018 AT TIME STEP      4, STRESS PERIOD     25
 UBDSV06 SAVING              RCH IN MODEL TEST_TRANS       PACKAGE TEST_TRANS      CONNECTED TO MODEL TEST_TRANS       PACKAGE RCHA             ON UNIT   1018 AT TIME STEP      4, STRESS PERIOD     25
 UBDSV06 SAVING              CHD IN MODEL TEST_TRANS       PACKAGE TEST_TRANS      CONNECTED TO MODEL TEST_TRANS       PACKAGE CHD              ON UNIT   1018 AT TIME STEP      4, STRESS PERIOD     25

 HEAD WILL BE SAVED ON UNIT 1019 AT END OF TIME STEP    4, STRESS PERIOD   25
 UBDSV1 SAVING           STO-SS ON UNIT   1018 AT TIME STEP      5, STRESS PERIOD     25
 UBDSV1 SAVING           STO-SY ON UNIT   1018 AT TIME STEP      5, STRESS PERIOD     25
 UBDSV1 SAVING     FLOW-JA-FACE ON UNIT   1018 AT TIME STEP      5, STRESS PERIOD     25
 UBDSV06 SAVING              RCH IN MODEL TEST_TRANS       PACKAGE TEST_TRANS      CONNECTED TO MODEL TEST_TRANS       PACKAGE RCHA             ON UNIT   1018 AT TIME STEP      5, STRESS PERIOD     25
 UBDSV06 SAVING              CHD IN MODEL TEST_TRANS       PACKAGE TEST_TRANS      CONNECTED TO MODEL TEST_TRANS       PACKAGE CHD              ON UNIT   1018 AT TIME STEP      5, STRESS PERIOD     25

 HEAD WILL BE SAVED ON UNIT 1019 AT END OF TIME STEP    5, STRESS PERIOD   25
 UBDSV1 SAVING           STO-SS ON UNIT   1018 AT TIME STEP      6, STRESS PERIOD     25
 UBDSV1 SAVING           STO-SY ON UNIT   1018 AT TIME STEP      6, STRESS PERIOD     25
 UBDSV1 SAVING     FLOW-JA-FACE ON UNIT   1018 AT TIME STEP      6, STRESS PERIOD     25
 UBDSV06 SAVING              RCH IN MODEL TEST_TRANS       PACKAGE TEST_TRANS      CONNECTED TO MODEL TEST_TRANS       PACKAGE RCHA             ON UNIT   1018 AT TIME STEP      6, STRESS PERIOD     25
 UBDSV06 SAVING              CHD IN MODEL TEST_TRANS       PACKAGE TEST_TRANS      CONNECTED TO MODEL TEST_TRANS       PACKAGE CHD              ON UNIT   1018 AT TIME STEP      6, STRESS PERIOD     25

 HEAD WILL BE SAVED ON UNIT 1019 AT END OF TIME STEP    6, STRESS PERIOD   25
 UBDSV1 SAVING           STO-SS ON UNIT   1018 AT TIME STEP      7, STRESS PERIOD     25
 UBDSV1 SAVING           STO-SY ON UNIT   1018 AT TIME STEP      7, STRESS PERIOD     25
 UBDSV1 SAVING     FLOW-JA-FACE ON UNIT   1018 AT TIME STEP      7, STRESS PERIOD     25
 UBDSV06 SAVING              RCH IN MODEL TEST_TRANS       PACKAGE TEST_TRANS      CONNECTED TO MODEL TEST_TRANS       PACKAGE RCHA             ON UNIT   1018 AT TIME STEP      7, STRESS PERIOD     25
 UBDSV06 SAVING              CHD IN MODEL TEST_TRANS       PACKAGE TEST_TRANS      CONNECTED TO MODEL TEST_TRANS       PACKAGE CHD              ON UNIT   1018 AT TIME STEP      7, STRESS PERIOD     25

 HEAD WILL BE SAVED ON UNIT 1019 AT END OF TIME STEP    7, STRESS PERIOD   25
 UBDSV1 SAVING           STO-SS ON UNIT   1018 AT TIME STEP      8, STRESS PERIOD     25
 UBDSV1 SAVING           STO-SY ON UNIT   1018 AT TIME STEP      8, STRESS PERIOD     25
 UBDSV1 SAVING     FLOW-JA-FACE ON UNIT   1018 AT TIME STEP      8, STRESS PERIOD     25
 UBDSV06 SAVING              RCH IN MODEL TEST_TRANS       PACKAGE TEST_TRANS      CONNECTED TO MODEL TEST_TRANS       PACKAGE RCHA             ON UNIT   1018 AT TIME STEP      8, STRESS PERIOD     25
 UBDSV06 SAVING              CHD IN MODEL TEST_TRANS       PACKAGE TEST_TRANS      CONNECTED TO MODEL TEST_TRANS       PACKAGE CHD              ON UNIT   1018 AT TIME STEP      8, STRESS PERIOD     25

 HEAD WILL BE SAVED ON UNIT 1019 AT END OF TIME STEP    8, STRESS PERIOD   25
 UBDSV1 SAVING           STO-SS ON UNIT   1018 AT TIME STEP      9, STRESS PERIOD     25
 UBDSV1 SAVING           STO-SY ON UNIT   1018 AT TIME STEP      9, STRESS PERIOD     25
 UBDSV1 SAVING     FLOW-JA-FACE ON UNIT   1018 AT TIME STEP      9, STRESS PERIOD     25
 UBDSV06 SAVING              RCH IN MODEL TEST_TRANS       PACKAGE TEST_TRANS      CONNECTED TO MODEL TEST_TRANS       PACKAGE RCHA             ON UNIT   1018 AT TIME STEP      9, STRESS PERIOD     25
 UBDSV06 SAVING              CHD IN MODEL TEST_TRANS       PACKAGE TEST_TRANS      CONNECTED TO MODEL TEST_TRANS       PACKAGE CHD              ON UNIT   1018 AT TIME STEP      9, STRESS PERIOD     25

 HEAD WILL BE SAVED ON UNIT 1019 AT END OF TIME STEP    9, STRESS PERIOD   25
 UBDSV1 SAVING           STO-SS ON UNIT   1018 AT TIME STEP     10, STRESS PERIOD     25
 UBDSV1 SAVING           STO-SY ON UNIT   1018 AT TIME STEP     10, STRESS PERIOD     25
 UBDSV1 SAVING     FLOW-JA-FACE ON UNIT   1018 AT TIME STEP     10, STRESS PERIOD     25
 UBDSV06 SAVING              RCH IN MODEL TEST_TRANS       PACKAGE TEST_TRANS      CONNECTED TO MODEL TEST_TRANS       PACKAGE RCHA             ON UNIT   1018 AT TIME STEP     10, STRESS PERIOD     25
 UBDSV06 SAVING              CHD IN MODEL TEST_TRANS       PACKAGE TEST_TRANS      CONNECTED TO MODEL TEST_TRANS       PACKAGE CHD              ON UNIT   1018 AT TIME STEP     10, STRESS PERIOD     25
1
  HEAD IN LAYER   1 AT END OF TIME STEP  10 IN STRESS PERIOD   25
  ---------------------------------------------------------------------------

                1               2               3               4               5               6               7               8               9              10
               11              12              13              14              15              16              17              18              19              20
               21              22              23              24              25              26              27              28              29              30
 ................................................................................................................................................................
   1      28.0240         28.0189         28.0088         27.9936         27.9733         27.9477         27.9166         27.8801         27.8379         27.7897    
          27.7354         27.6747         27.6071         27.5324         27.4500         27.3594         27.2599         27.1508         27.0312         26.8998    
          26.7554         26.5960         26.4196         26.2231         26.0023         25.7512         25.4601         25.1120         24.6687         23.4467    
   2      28.0240         28.0189         28.0088         27.9936         27.9733         27.9477         27.9166         27.8801         27.8379         27.7897    
          27.7354         27.6747         27.6071         27.5324         27.4500         27.3594         27.2599         27.1508         27.0312         26.8998    
          26.7553         26.5960         26.4196         26.2231         26.0023         25.7512         25.4601         25.1120         24.6688         23.4467    
   3      28.0240         28.0189         28.0088         27.9936         27.9733         27.9477         27.9167         27.8801         27.8379         27.7897    
          27.7354         27.6747         27.6071         27.5324         27.4500         27.3594         27.2599         27.1508         27.0312         26.8998    
          26.7553         26.5960         26.4196         26.2231         26.0023         25.7512         25.4601         25.1120         24.6688         23.4467    
   4      28.0240         28.0189         28.0088         27.9936         27.9733         27.9477         27.9167         27.8801         27.8379         27.7897    
          27.7354         27.6747         27.6071         27.5324         27.4500         27.3594         27.2599         27.1508         27.0312         26.8998    
          26.7553         26.5960         26.4196         26.2231         26.0023         25.7512         25.4601         25.1120         24.6688         23.4467    
   5      28.0240         28.0189         28.0088         27.9936         27.9733         27.9477         27.9166         27.8801         27.8379         27.7897    
          27.7354         27.6747         27.6071         27.5324         27.4500         27.3594         27.2599         27.1508         27.0312         26.8998    
          26.7553         26.5960         26.4196         26.2231         26.0023         25.7512         25.4601         25.1120         24.6688         23.4467    
   6      28.0240         28.0189         28.0088         27.9936         27.9733         27.9477         27.9166         27.8801         27.8379         27.7897    
          27.7354         27.6747         27.6071         27.5324         27.4500         27.3594         27.2599         27.1508         27.0312         26.8998    
          26.7553         26.5960         26.4196         26.2231         26.0023         25.7512         25.4601         25.1120         24.6688         23.4467    
   7      28.0240         28.0189         28.0088         27.9936         27.9733         27.9477         27.9166         27.8801         27.8379         27.7897    
          27.7354         27.6747         27.6071         27.5324         27.4500         27.3594         27.2599         27.1508         27.0312         26.8998    
          26.7553         26.5960         26.4196         26.2231         26.0023         25.7512         25.4601         25.1120         24.6688         23.4467    
   8      28.0240         28.0189         28.0088         27.9936         27.9733         27.9477         27.9166         27.8801         27.8379         27.7897    
          27.7354         27.6747         27.6071         27.5324         27.4500         27.3594         27.2599         27.1508         27.0312         26.8998    
          26.7553         26.5960         26.4196         26.2231         26.0023         25.7512         25.4601         25.1120         24.6688         23.4467    
   9      28.0240         28.0189         28.0088         27.9936         27.9733         27.9477         27.9166         27.8801         27.8379         27.7897    
          27.7354         27.6747         27.6071         27.5324         27.4500         27.3594         27.2599         27.1508         27.0312         26.8998    
          26.7553         26.5960         26.4196         26.2231         26.0023         25.7512         25.4601         25.1120         24.6688         23.4467    
  10      28.0240         28.0189         28.0088         27.9936         27.9733         27.9477         27.9166         27.8801         27.8379         27.7897    
          27.7354         27.6747         27.6071         27.5324         27.4500         27.3594         27.2599         27.1508         27.0312         26.8998    
          26.7553         26.5960         26.4196         26.2231         26.0023         25.7512         25.4601         25.1120         24.6688         23.4467    
  11      28.0240         28.0189         28.0088         27.9936         27.9733         27.9477         27.9166         27.8801         27.8379         27.7897    
          27.7354         27.6747         27.6071         27.5324         27.4500         27.3594         27.2599         27.1508         27.0312         26.8998    
          26.7553         26.5960         26.4196         26.2231         26.0023         25.7512         25.4601         25.1120         24.6688         23.4467    
  12      28.0240         28.0189         28.0088         27.9936         27.9733         27.9477         27.9166         27.8801         27.8379         27.7897    
          27.7354         27.6747         27.6071         27.5324         27.4500         27.3594         27.2599         27.1508         27.0312         26.8998    
          26.7553         26.5960         26.4196         26.2231         26.0023         25.7512         25.4601         25.1120         24.6688         23.4467    
  13      28.0240         28.0189         28.0088         27.9936         27.9733         27.9477         27.9166         27.8801         27.8379         27.7897    
          27.7354         27.6747         27.6071         27.5324         27.4500         27.3594         27.2599         27.1508         27.0312         26.8998    
          26.7553         26.5960         26.4196         26.2231         26.0023         25.7512         25.4601         25.1120         24.6688         23.4467    
  14      28.0240         28.0189         28.0088         27.9936         27.9733         27.9477         27.9166         27.8801         27.8379         27.7897    
          27.7354         27.6747         27.6071         27.5324         27.4500         27.3594         27.2599         27.1508         27.0312         26.8998    
          26.7553         26.5960         26.4196         26.2231         26.0023         25.7512         25.4601         25.1120         24.6688         23.4467    
  15      28.0240         28.0189         28.0088         27.9936         27.9733         27.9477         27.9166         27.8801         27.8379         27.7897    
          27.7354         27.6747         27.6071         27.5324         27.4500         27.3594         27.2599         27.1508         27.0312         26.8998    
          26.7553         26.5960         26.4196         26.2231         26.0023         25.7512         25.4601         25.1120         24.6688         23.4467    
  16      28.0240         28.0189         28.0088         27.9936         27.9733         27.9477         27.9166         27.8801         27.8379         27.7897    
          27.7354         27.6747         27.6071         27.5324         27.4500         27.3594         27.2599         27.1508         27.0312         26.8998    
          26.7553         26.5960         26.4196         26.2231         26.0023         25.7512         25.4601         25.1120         24.6688         23.4467    
  17      28.0240         28.0189         28.0088         27.9936         27.9733         27.9477         27.9166         27.8801         27.8379         27.7897    
          27.7354         27.6747         27.6071         27.5324         27.4500         27.3594         27.2599         27.1508         27.0312         26.8998    
          26.7553         26.5960         26.4196         26.2231         26.0023         25.7512         25.4601         25.1120         24.6688         23.4467    
  18      28.0240         28.0189         28.0088         27.9936         27.9733         27.9477         27.9166         27.8801         27.8379         27.7897    
          27.7354         27.6747         27.6071         27.5324         27.4500         27.3594         27.2599         27.1508         27.0312         26.8998    
          26.7553         26.5960         26.4196         26.2231         26.0023         25.7512         25.4601         25.1120         24.6688         23.4467    
  19      28.0240         28.0189         28.0088         27.9936         27.9733         27.9477         27.9166         27.8801         27.8379         27.7897    
          27.7354         27.6747         27.6071         27.5324         27.4500         27.3594         27.2599         27.1508         27.0312         26.8998    
          26.7553         26.5960         26.4196         26.2231         26.0023         25.7512         25.4601         25.1120         24.6688         23.4467    
  20      28.0240         28.0189         28.0088         27.9936         27.9733         27.9477         27.9166         27.8801         27.8379         27.7897    
          27.7354         27.6747         27.6071         27.5324         27.4500         27.3594         27.2599         27.1508         27.0312         26.8998    
          26.7553         26.5960         26.4196         26.2231         26.0023         25.7512         25.4601         25.1120         24.6688         23.4467    
  21      28.0240         28.0189         28.0088         27.9936         27.9733         27.9477         27.9166         27.8801         27.8379         27.7897    
          27.7354         27.6747         27.6071         27.5324         27.4500         27.3594         27.2599         27.1508         27.0312         26.8998    
          26.7553         26.5960         26.4196         26.2231         26.0023         25.7512         25.4601         25.1120         24.6688         23.4467    
  22      28.0240         28.0189         28.0088         27.9936         27.9733         27.9477         27.9166         27.8801         27.8379         27.7897    
          27.7354         27.6747         27.6071         27.5324         27.4500         27.3594         27.2599         27.1508         27.0312         26.8998    
          26.7553         26.5960         26.4196         26.2231         26.0023         25.7512         25.4601         25.1120         24.6688         23.4467    
  23      28.0240         28.0189         28.0088         27.9936         27.9733         27.9477         27.9166         27.8801         27.8379         27.7897    
          27.7354         27.6747         27.6071         27.5324         27.4500         27.3594         27.2599         27.1508         27.0312         26.8998    
          26.7553         26.5960         26.4196         26.2231         26.0023         25.7512         25.4601         25.1120         24.6688         23.4467    
  24      28.0240         28.0189         28.0088         27.9936         27.9733         27.9477         27.9166         27.8801         27.8379         27.7897    
          27.7354         27.6747         27.6071         27.5324         27.4500         27.3594         27.2599         27.1508         27.0312         26.8998    
          26.7553         26.5960         26.4196         26.2231         26.0023         25.7512         25.4601         25.1120         24.6688         23.4467    
  25      28.0240         28.0189         28.0088         27.9936         27.9733         27.9477         27.9166         27.8801         27.8379         27.7897    
          27.7354         27.6747         27.6071         27.5324         27.4500         27.3594         27.2599         27.1508         27.0312         26.8998    
          26.7553         26.5960         26.4196         26.2231         26.0023         25.7512         25.4601         25.1120         24.6688         23.4467    
  26      28.0240         28.0189         28.0088         27.9936         27.9733         27.9477         27.9166         27.8801         27.8379         27.7897    
          27.7354         27.6747         27.6071         27.5324         27.4500         27.3594         27.2599         27.1508         27.0312         26.8998    
          26.7553         26.5960         26.4196         26.2231         26.0023         25.7512         25.4601         25.1120         24.6688         23.4467    
  27      28.0240         28.0189         28.0088         27.9936         27.9733         27.9477         27.9166         27.8801         27.8379         27.7897    
          27.7354         27.6747         27.6071         27.5324         27.4500         27.3594         27.2599         27.1508         27.0312         26.8998    
          26.7553         26.5960         26.4196         26.2231         26.0023         25.7512         25.4601         25.1120         24.6688         23.4467    
  28      28.0240         28.0189         28.0088         27.9936         27.9733         27.9477         27.9166         27.8801         27.8379         27.7897    
          27.7354         27.6747         27.6071         27.5324         27.4500         27.3594         27.2599         27.1508         27.0312         26.8998    
          26.7553         26.5960         26.4196         26.2231         26.0023         25.7512         25.4601         25.1120         24.6688         23.4467    
  29      28.0240         28.0189         28.0088         27.9936         27.9733         27.9477         27.9166         27.8801         27.8379         27.7897    
          27.7354         27.6747         27.6071         27.5324         27.4500         27.3594         27.2599         27.1508         27.0312         26.8998    
          26.7553         26.5960         26.4196         26.2231         26.0023         25.7512         25.4601         25.1120         24.6688         23.4467    
  30      28.0240         28.0189         28.0088         27.9936         27.9733         27.9477         27.9166         27.8801         27.8379         27.7897    
          27.7354         27.6747         27.6071         27.5324         27.4500         27.3594         27.2599         27.1508         27.0312         26.8998    
          26.7553         26.5960         26.4196         26.2231         26.0023         25.7512         25.4601         25.1120         24.6688         23.4467    

 HEAD WILL BE SAVED ON UNIT 1019 AT END OF TIME STEP   10, STRESS PERIOD   25


  VOLUME BUDGET FOR ENTIRE MODEL AT END OF TIME STEP   10, STRESS PERIOD  25
  ---------------------------------------------------------------------------------------------------

     CUMULATIVE VOLUME      L**3       RATES FOR THIS TIME STEP      L**3/T          PACKAGE NAME    
     ------------------                 ------------------------                     ----------------

           IN:                                      IN:
           ---                                      ---
              STO-SS =          39.3067                STO-SS =       8.6096E-03     STORAGE         
              STO-SY =       25344.0367                STO-SY =           6.0600     STORAGE         
                 RCH =      119654.8506                   RCH =         238.3565     RCHA            
                 CHD =        1305.4009                   CHD =           0.0000     CHD             

            TOTAL IN =      146343.5949              TOTAL IN =         244.4252

          OUT:                                     OUT:
          ----                                     ----
              STO-SS =          32.5860                STO-SS =       3.4521E-02     STORAGE         
              STO-SY =       21163.7974                STO-SY =          21.1433     STORAGE         
                 RCH =           0.0000                   RCH =           0.0000     RCHA            
                 CHD =      125146.7729                   CHD =         223.2414     CHD             

           TOTAL OUT =      146343.1564             TOTAL OUT =         244.4192

            IN - OUT =           0.4385              IN - OUT =       5.9368E-03

 PERCENT DISCREPANCY =           0.00     PERCENT DISCREPANCY =           0.00




         TIME SUMMARY AT END OF TIME STEP   10 IN STRESS PERIOD   25
                    SECONDS     MINUTES      HOURS       DAYS        YEARS
                    -----------------------------------------------------------
   TIME STEP LENGTH 2.59200E+05  4320.0      72.000      3.0000     8.21355E-03
 STRESS PERIOD TIME 2.59200E+06  43200.      720.00      30.000     8.21355E-02
         TOTAL TIME 6.22944E+07 1.03824E+06  17304.      721.00      1.9740    

 OUTPUT CONTROL FOR STRESS PERIOD 26 IS REPEATED USING SETTINGS FROM A PREVIOUS STRESS PERIOD.


 STRESS PERIOD 26 IS TRANSIENT


                 RECHARGE =  0.3287670E-02
 UBDSV1 SAVING           STO-SS ON UNIT   1018 AT TIME STEP      1, STRESS PERIOD     26
 UBDSV1 SAVING           STO-SY ON UNIT   1018 AT TIME STEP      1, STRESS PERIOD     26
 UBDSV1 SAVING     FLOW-JA-FACE ON UNIT   1018 AT TIME STEP      1, STRESS PERIOD     26
 UBDSV06 SAVING              RCH IN MODEL TEST_TRANS       PACKAGE TEST_TRANS      CONNECTED TO MODEL TEST_TRANS       PACKAGE RCHA             ON UNIT   1018 AT TIME STEP      1, STRESS PERIOD     26
 UBDSV06 SAVING              CHD IN MODEL TEST_TRANS       PACKAGE TEST_TRANS      CONNECTED TO MODEL TEST_TRANS       PACKAGE CHD              ON UNIT   1018 AT TIME STEP      1, STRESS PERIOD     26
1
  HEAD IN LAYER   1 AT END OF TIME STEP   1 IN STRESS PERIOD   26
  ---------------------------------------------------------------------------

                1               2               3               4               5               6               7               8               9              10
               11              12              13              14              15              16              17              18              19              20
               21              22              23              24              25              26              27              28              29              30
 ................................................................................................................................................................
   1      28.0401         28.0350         28.0248         28.0095         27.9890         27.9631         27.9319         27.8950         27.8524         27.8039    
          27.7491         27.6879         27.6198         27.5445         27.4615         27.3703         27.2701         27.1603         27.0399         26.9078    
          26.7625         26.6025         26.4252         26.2278         26.0060         25.7535         25.4603         25.1081         24.6544         23.8794    
   2      28.0401         28.0350         28.0248         28.0095         27.9890         27.9631         27.9319         27.8950         27.8524         27.8039    
          27.7491         27.6879         27.6198         27.5445         27.4615         27.3703         27.2701         27.1603         27.0399         26.9078    
          26.7625         26.6025         26.4252         26.2278         26.0060         25.7535         25.4603         25.1081         24.6545         23.8794    
   3      28.0401         28.0350         28.0248         28.0095         27.9890         27.9631         27.9319         27.8950         27.8524         27.8039    
          27.7491         27.6879         27.6198         27.5445         27.4615         27.3703         27.2701         27.1603         27.0399         26.9078    
          26.7625         26.6025         26.4252         26.2278         26.0060         25.7535         25.4603         25.1081         24.6545         23.8794    
   4      28.0401         28.0350         28.0248         28.0095         27.9890         27.9631         27.9319         27.8950         27.8524         27.8039    
          27.7491         27.6879         27.6198         27.5445         27.4615         27.3703         27.2701         27.1603         27.0399         26.9078    
          26.7625         26.6025         26.4252         26.2278         26.0060         25.7535         25.4603         25.1081         24.6544         23.8794    
   5      28.0401         28.0350         28.0248         28.0095         27.9890         27.9631         27.9319         27.8950         27.8524         27.8039    
          27.7491         27.6879         27.6198         27.5445         27.4615         27.3703         27.2701         27.1603         27.0399         26.9078    
          26.7625         26.6025         26.4252         26.2278         26.0060         25.7535         25.4603         25.1081         24.6544         23.8794    
   6      28.0401         28.0350         28.0248         28.0095         27.9890         27.9631         27.9319         27.8950         27.8524         27.8039    
          27.7491         27.6879         27.6198         27.5445         27.4615         27.3703         27.2701         27.1603         27.0399         26.9078    
          26.7625         26.6025         26.4252         26.2278         26.0060         25.7535         25.4603         25.1081         24.6544         23.8794    
   7      28.0401         28.0350         28.0248         28.0095         27.9890         27.9631         27.9319         27.8950         27.8524         27.8039    
          27.7491         27.6879         27.6198         27.5445         27.4615         27.3703         27.2701         27.1603         27.0399         26.9078    
          26.7625         26.6025         26.4252         26.2278         26.0060         25.7535         25.4603         25.1081         24.6544         23.8794    
   8      28.0401         28.0350         28.0248         28.0095         27.9890         27.9631         27.9319         27.8950         27.8524         27.8039    
          27.7491         27.6879         27.6198         27.5445         27.4615         27.3703         27.2701         27.1603         27.0399         26.9078    
          26.7625         26.6025         26.4252         26.2278         26.0060         25.7535         25.4603         25.1081         24.6544         23.8794    
   9      28.0401         28.0350         28.0248         28.0095         27.9890         27.9631         27.9319         27.8950         27.8524         27.8039    
          27.7491         27.6879         27.6198         27.5445         27.4615         27.3703         27.2701         27.1603         27.0399         26.9078    
          26.7625         26.6025         26.4252         26.2278         26.0060         25.7535         25.4603         25.1081         24.6544         23.8794    
  10      28.0401         28.0350         28.0248         28.0095         27.9890         27.9631         27.9319         27.8950         27.8524         27.8039    
          27.7491         27.6879         27.6198         27.5445         27.4615         27.3703         27.2701         27.1603         27.0399         26.9078    
          26.7625         26.6025         26.4252         26.2278         26.0060         25.7535         25.4603         25.1081         24.6544         23.8794    
  11      28.0401         28.0350         28.0248         28.0095         27.9890         27.9631         27.9319         27.8950         27.8524         27.8039    
          27.7491         27.6879         27.6198         27.5445         27.4615         27.3703         27.2701         27.1603         27.0399         26.9078    
          26.7625         26.6025         26.4252         26.2278         26.0060         25.7535         25.4603         25.1081         24.6544         23.8794    
  12      28.0401         28.0350         28.0248         28.0095         27.9890         27.9631         27.9319         27.8950         27.8524         27.8039    
          27.7491         27.6879         27.6198         27.5445         27.4615         27.3703         27.2701         27.1603         27.0399         26.9078    
          26.7625         26.6025         26.4252         26.2278         26.0060         25.7535         25.4603         25.1081         24.6544         23.8794    
  13      28.0401         28.0350         28.0248         28.0095         27.9890         27.9631         27.9319         27.8950         27.8524         27.8039    
          27.7491         27.6879         27.6198         27.5445         27.4615         27.3703         27.2701         27.1603         27.0399         26.9078    
          26.7625         26.6025         26.4252         26.2278         26.0060         25.7535         25.4603         25.1081         24.6544         23.8794    
  14      28.0401         28.0350         28.0248         28.0095         27.9890         27.9631         27.9319         27.8950         27.8524         27.8039    
          27.7491         27.6879         27.6198         27.5445         27.4615         27.3703         27.2701         27.1603         27.0399         26.9078    
          26.7625         26.6025         26.4252         26.2278         26.0060         25.7535         25.4603         25.1081         24.6544         23.8794    
  15      28.0401         28.0350         28.0248         28.0095         27.9890         27.9631         27.9319         27.8950         27.8524         27.8039    
          27.7491         27.6879         27.6198         27.5445         27.4615         27.3703         27.2701         27.1603         27.0399         26.9078    
          26.7625         26.6025         26.4252         26.2278         26.0060         25.7535         25.4603         25.1081         24.6544         23.8794    
  16      28.0401         28.0350         28.0248         28.0095         27.9890         27.9631         27.9319         27.8950         27.8524         27.8039    
          27.7491         27.6879         27.6198         27.5445         27.4615         27.3702         27.2701         27.1603         27.0399         26.9078    
          26.7625         26.6025         26.4252         26.2278         26.0060         25.7535         25.4603         25.1081         24.6544         23.8794    
  17      28.0401         28.0350         28.0248         28.0095         27.9890         27.9631         27.9319         27.8950         27.8524         27.8039    
          27.7491         27.6879         27.6198         27.5445         27.4615         27.3702         27.2701         27.1603         27.0399         26.9078    
          26.7625         26.6025         26.4252         26.2278         26.0060         25.7535         25.4603         25.1081         24.6544         23.8794    
  18      28.0401         28.0350         28.0248         28.0095         27.9890         27.9631         27.9319         27.8950         27.8524         27.8039    
          27.7491         27.6879         27.6198         27.5445         27.4615         27.3702         27.2701         27.1603         27.0399         26.9078    
          26.7625         26.6025         26.4252         26.2278         26.0060         25.7535         25.4603         25.1081         24.6544         23.8794    
  19      28.0401         28.0350         28.0248         28.0095         27.9890         27.9631         27.9319         27.8950         27.8524         27.8039    
          27.7491         27.6879         27.6198         27.5445         27.4615         27.3702         27.2701         27.1603         27.0399         26.9078    
          26.7625         26.6025         26.4252         26.2278         26.0060         25.7535         25.4603         25.1081         24.6544         23.8794    
  20      28.0401         28.0350         28.0248         28.0095         27.9890         27.9631         27.9319         27.8950         27.8524         27.8039    
          27.7491         27.6879         27.6198         27.5445         27.4615         27.3702         27.2701         27.1603         27.0399         26.9078    
          26.7625         26.6025         26.4252         26.2278         26.0060         25.7535         25.4603         25.1081         24.6544         23.8794    
  21      28.0401         28.0350         28.0248         28.0095         27.9890         27.9631         27.9319         27.8950         27.8524         27.8039    
          27.7491         27.6879         27.6198         27.5445         27.4615         27.3702         27.2701         27.1603         27.0399         26.9078    
          26.7625         26.6025         26.4252         26.2278         26.0060         25.7535         25.4603         25.1081         24.6544         23.8794    
  22      28.0401         28.0350         28.0248         28.0095         27.9890         27.9631         27.9319         27.8950         27.8524         27.8039    
          27.7491         27.6879         27.6198         27.5445         27.4615         27.3702         27.2701         27.1603         27.0399         26.9078    
          26.7625         26.6025         26.4252         26.2278         26.0060         25.7535         25.4603         25.1081         24.6544         23.8794    
  23      28.0401         28.0350         28.0248         28.0095         27.9890         27.9631         27.9319         27.8950         27.8524         27.8039    
          27.7491         27.6879         27.6198         27.5445         27.4615         27.3702         27.2701         27.1603         27.0399         26.9078    
          26.7625         26.6025         26.4252         26.2278         26.0060         25.7535         25.4603         25.1081         24.6544         23.8794    
  24      28.0401         28.0350         28.0248         28.0095         27.9890         27.9631         27.9319         27.8950         27.8524         27.8039    
          27.7491         27.6879         27.6198         27.5445         27.4615         27.3702         27.2701         27.1603         27.0399         26.9078    
          26.7625         26.6025         26.4252         26.2278         26.0060         25.7535         25.4603         25.1081         24.6544         23.8794    
  25      28.0401         28.0350         28.0248         28.0095         27.9890         27.9631         27.9319         27.8950         27.8524         27.8039    
          27.7491         27.6879         27.6198         27.5445         27.4615         27.3702         27.2701         27.1603         27.0399         26.9078    
          26.7625         26.6025         26.4252         26.2278         26.0060         25.7535         25.4603         25.1081         24.6544         23.8794    
  26      28.0401         28.0350         28.0248         28.0095         27.9890         27.9631         27.9319         27.8950         27.8524         27.8039    
          27.7491         27.6879         27.6198         27.5445         27.4615         27.3702         27.2701         27.1603         27.0399         26.9078    
          26.7625         26.6025         26.4252         26.2278         26.0060         25.7535         25.4603         25.1081         24.6544         23.8794    
  27      28.0401         28.0350         28.0248         28.0095         27.9890         27.9631         27.9319         27.8950         27.8524         27.8039    
          27.7491         27.6879         27.6198         27.5445         27.4615         27.3702         27.2701         27.1603         27.0399         26.9078    
          26.7625         26.6025         26.4252         26.2278         26.0060         25.7535         25.4603         25.1081         24.6544         23.8794    
  28      28.0401         28.0350         28.0248         28.0095         27.9890         27.9631         27.9319         27.8950         27.8524         27.8039    
          27.7491         27.6879         27.6198         27.5445         27.4615         27.3702         27.2701         27.1603         27.0399         26.9078    
          26.7625         26.6025         26.4252         26.2278         26.0060         25.7535         25.4603         25.1081         24.6544         23.8794    
  29      28.0401         28.0350         28.0248         28.0095         27.9890         27.9631         27.9319         27.8950         27.8524         27.8039    
          27.7491         27.6879         27.6198         27.5445         27.4615         27.3702         27.2701         27.1603         27.0399         26.9078    
          26.7625         26.6025         26.4252         26.2278         26.0060         25.7535         25.4603         25.1081         24.6544         23.8794    
  30      28.0401         28.0350         28.0248         28.0095         27.9890         27.9631         27.9319         27.8950         27.8524         27.8039    
          27.7491         27.6879         27.6198         27.5445         27.4615         27.3702         27.2701         27.1603         27.0399         26.9078    
          26.7625         26.6025         26.4252         26.2278         26.0060         25.7535         25.4603         25.1080         24.6544         23.8794    

 HEAD WILL BE SAVED ON UNIT 1019 AT END OF TIME STEP    1, STRESS PERIOD   26



         TIME SUMMARY AT END OF TIME STEP    1 IN STRESS PERIOD   26
                    SECONDS     MINUTES      HOURS       DAYS        YEARS
                    -----------------------------------------------------------
   TIME STEP LENGTH 2.59200E+05  4320.0      72.000      3.0000     8.21355E-03
 STRESS PERIOD TIME 2.59200E+05  4320.0      72.000      3.0000     8.21355E-03
         TOTAL TIME 6.25536E+07 1.04256E+06  17376.      724.00      1.9822    
 UBDSV1 SAVING           STO-SS ON UNIT   1018 AT TIME STEP      2, STRESS PERIOD     26
 UBDSV1 SAVING           STO-SY ON UNIT   1018 AT TIME STEP      2, STRESS PERIOD     26
 UBDSV1 SAVING     FLOW-JA-FACE ON UNIT   1018 AT TIME STEP      2, STRESS PERIOD     26
 UBDSV06 SAVING              RCH IN MODEL TEST_TRANS       PACKAGE TEST_TRANS      CONNECTED TO MODEL TEST_TRANS       PACKAGE RCHA             ON UNIT   1018 AT TIME STEP      2, STRESS PERIOD     26
 UBDSV06 SAVING              CHD IN MODEL TEST_TRANS       PACKAGE TEST_TRANS      CONNECTED TO MODEL TEST_TRANS       PACKAGE CHD              ON UNIT   1018 AT TIME STEP      2, STRESS PERIOD     26

 HEAD WILL BE SAVED ON UNIT 1019 AT END OF TIME STEP    2, STRESS PERIOD   26
 UBDSV1 SAVING           STO-SS ON UNIT   1018 AT TIME STEP      3, STRESS PERIOD     26
 UBDSV1 SAVING           STO-SY ON UNIT   1018 AT TIME STEP      3, STRESS PERIOD     26
 UBDSV1 SAVING     FLOW-JA-FACE ON UNIT   1018 AT TIME STEP      3, STRESS PERIOD     26
 UBDSV06 SAVING              RCH IN MODEL TEST_TRANS       PACKAGE TEST_TRANS      CONNECTED TO MODEL TEST_TRANS       PACKAGE RCHA             ON UNIT   1018 AT TIME STEP      3, STRESS PERIOD     26
 UBDSV06 SAVING              CHD IN MODEL TEST_TRANS       PACKAGE TEST_TRANS      CONNECTED TO MODEL TEST_TRANS       PACKAGE CHD              ON UNIT   1018 AT TIME STEP      3, STRESS PERIOD     26

 HEAD WILL BE SAVED ON UNIT 1019 AT END OF TIME STEP    3, STRESS PERIOD   26
 UBDSV1 SAVING           STO-SS ON UNIT   1018 AT TIME STEP      4, STRESS PERIOD     26
 UBDSV1 SAVING           STO-SY ON UNIT   1018 AT TIME STEP      4, STRESS PERIOD     26
 UBDSV1 SAVING     FLOW-JA-FACE ON UNIT   1018 AT TIME STEP      4, STRESS PERIOD     26
 UBDSV06 SAVING              RCH IN MODEL TEST_TRANS       PACKAGE TEST_TRANS      CONNECTED TO MODEL TEST_TRANS       PACKAGE RCHA             ON UNIT   1018 AT TIME STEP      4, STRESS PERIOD     26
 UBDSV06 SAVING              CHD IN MODEL TEST_TRANS       PACKAGE TEST_TRANS      CONNECTED TO MODEL TEST_TRANS       PACKAGE CHD              ON UNIT   1018 AT TIME STEP      4, STRESS PERIOD     26

 HEAD WILL BE SAVED ON UNIT 1019 AT END OF TIME STEP    4, STRESS PERIOD   26
 UBDSV1 SAVING           STO-SS ON UNIT   1018 AT TIME STEP      5, STRESS PERIOD     26
 UBDSV1 SAVING           STO-SY ON UNIT   1018 AT TIME STEP      5, STRESS PERIOD     26
 UBDSV1 SAVING     FLOW-JA-FACE ON UNIT   1018 AT TIME STEP      5, STRESS PERIOD     26
 UBDSV06 SAVING              RCH IN MODEL TEST_TRANS       PACKAGE TEST_TRANS      CONNECTED TO MODEL TEST_TRANS       PACKAGE RCHA             ON UNIT   1018 AT TIME STEP      5, STRESS PERIOD     26
 UBDSV06 SAVING              CHD IN MODEL TEST_TRANS       PACKAGE TEST_TRANS      CONNECTED TO MODEL TEST_TRANS       PACKAGE CHD              ON UNIT   1018 AT TIME STEP      5, STRESS PERIOD     26

 HEAD WILL BE SAVED ON UNIT 1019 AT END OF TIME STEP    5, STRESS PERIOD   26
 UBDSV1 SAVING           STO-SS ON UNIT   1018 AT TIME STEP      6, STRESS PERIOD     26
 UBDSV1 SAVING           STO-SY ON UNIT   1018 AT TIME STEP      6, STRESS PERIOD     26
 UBDSV1 SAVING     FLOW-JA-FACE ON UNIT   1018 AT TIME STEP      6, STRESS PERIOD     26
 UBDSV06 SAVING              RCH IN MODEL TEST_TRANS       PACKAGE TEST_TRANS      CONNECTED TO MODEL TEST_TRANS       PACKAGE RCHA             ON UNIT   1018 AT TIME STEP      6, STRESS PERIOD     26
 UBDSV06 SAVING              CHD IN MODEL TEST_TRANS       PACKAGE TEST_TRANS      CONNECTED TO MODEL TEST_TRANS       PACKAGE CHD              ON UNIT   1018 AT TIME STEP      6, STRESS PERIOD     26

 HEAD WILL BE SAVED ON UNIT 1019 AT END OF TIME STEP    6, STRESS PERIOD   26
 UBDSV1 SAVING           STO-SS ON UNIT   1018 AT TIME STEP      7, STRESS PERIOD     26
 UBDSV1 SAVING           STO-SY ON UNIT   1018 AT TIME STEP      7, STRESS PERIOD     26
 UBDSV1 SAVING     FLOW-JA-FACE ON UNIT   1018 AT TIME STEP      7, STRESS PERIOD     26
 UBDSV06 SAVING              RCH IN MODEL TEST_TRANS       PACKAGE TEST_TRANS      CONNECTED TO MODEL TEST_TRANS       PACKAGE RCHA             ON UNIT   1018 AT TIME STEP      7, STRESS PERIOD     26
 UBDSV06 SAVING              CHD IN MODEL TEST_TRANS       PACKAGE TEST_TRANS      CONNECTED TO MODEL TEST_TRANS       PACKAGE CHD              ON UNIT   1018 AT TIME STEP      7, STRESS PERIOD     26

 HEAD WILL BE SAVED ON UNIT 1019 AT END OF TIME STEP    7, STRESS PERIOD   26
 UBDSV1 SAVING           STO-SS ON UNIT   1018 AT TIME STEP      8, STRESS PERIOD     26
 UBDSV1 SAVING           STO-SY ON UNIT   1018 AT TIME STEP      8, STRESS PERIOD     26
 UBDSV1 SAVING     FLOW-JA-FACE ON UNIT   1018 AT TIME STEP      8, STRESS PERIOD     26
 UBDSV06 SAVING              RCH IN MODEL TEST_TRANS       PACKAGE TEST_TRANS      CONNECTED TO MODEL TEST_TRANS       PACKAGE RCHA             ON UNIT   1018 AT TIME STEP      8, STRESS PERIOD     26
 UBDSV06 SAVING              CHD IN MODEL TEST_TRANS       PACKAGE TEST_TRANS      CONNECTED TO MODEL TEST_TRANS       PACKAGE CHD              ON UNIT   1018 AT TIME STEP      8, STRESS PERIOD     26

 HEAD WILL BE SAVED ON UNIT 1019 AT END OF TIME STEP    8, STRESS PERIOD   26
 UBDSV1 SAVING           STO-SS ON UNIT   1018 AT TIME STEP      9, STRESS PERIOD     26
 UBDSV1 SAVING           STO-SY ON UNIT   1018 AT TIME STEP      9, STRESS PERIOD     26
 UBDSV1 SAVING     FLOW-JA-FACE ON UNIT   1018 AT TIME STEP      9, STRESS PERIOD     26
 UBDSV06 SAVING              RCH IN MODEL TEST_TRANS       PACKAGE TEST_TRANS      CONNECTED TO MODEL TEST_TRANS       PACKAGE RCHA             ON UNIT   1018 AT TIME STEP      9, STRESS PERIOD     26
 UBDSV06 SAVING              CHD IN MODEL TEST_TRANS       PACKAGE TEST_TRANS      CONNECTED TO MODEL TEST_TRANS       PACKAGE CHD              ON UNIT   1018 AT TIME STEP      9, STRESS PERIOD     26

 HEAD WILL BE SAVED ON UNIT 1019 AT END OF TIME STEP    9, STRESS PERIOD   26
 UBDSV1 SAVING           STO-SS ON UNIT   1018 AT TIME STEP     10, STRESS PERIOD     26
 UBDSV1 SAVING           STO-SY ON UNIT   1018 AT TIME STEP     10, STRESS PERIOD     26
 UBDSV1 SAVING     FLOW-JA-FACE ON UNIT   1018 AT TIME STEP     10, STRESS PERIOD     26
 UBDSV06 SAVING              RCH IN MODEL TEST_TRANS       PACKAGE TEST_TRANS      CONNECTED TO MODEL TEST_TRANS       PACKAGE RCHA             ON UNIT   1018 AT TIME STEP     10, STRESS PERIOD     26
 UBDSV06 SAVING              CHD IN MODEL TEST_TRANS       PACKAGE TEST_TRANS      CONNECTED TO MODEL TEST_TRANS       PACKAGE CHD              ON UNIT   1018 AT TIME STEP     10, STRESS PERIOD     26
1
  HEAD IN LAYER   1 AT END OF TIME STEP  10 IN STRESS PERIOD   26
  ---------------------------------------------------------------------------

                1               2               3               4               5               6               7               8               9              10
               11              12              13              14              15              16              17              18              19              20
               21              22              23              24              25              26              27              28              29              30
 ................................................................................................................................................................
   1      28.1693         28.1639         28.1531         28.1367         28.1149         28.0874         28.0542         28.0150         27.9698         27.9184    
          27.8604         27.7957         27.7238         27.6444         27.5571         27.4612         27.3562         27.2413         27.1156         26.9779    
          26.8269         26.6608         26.4773         26.2733         26.0446         25.7847         25.4836         25.1229         24.6605         23.8794    
   2      28.1693         28.1639         28.1531         28.1367         28.1149         28.0874         28.0542         28.0150         27.9698         27.9184    
          27.8604         27.7957         27.7238         27.6444         27.5571         27.4612         27.3562         27.2413         27.1156         26.9779    
          26.8269         26.6608         26.4773         26.2733         26.0446         25.7847         25.4836         25.1229         24.6605         23.8794    
   3      28.1693         28.1639         28.1531         28.1367         28.1149         28.0874         28.0542         28.0150         27.9698         27.9184    
          27.8604         27.7957         27.7238         27.6444         27.5571         27.4612         27.3562         27.2413         27.1156         26.9779    
          26.8269         26.6608         26.4773         26.2733         26.0446         25.7847         25.4836         25.1229         24.6605         23.8794    
   4      28.1693         28.1639         28.1531         28.1367         28.1149         28.0874         28.0542         28.0150         27.9698         27.9184    
          27.8604         27.7957         27.7238         27.6444         27.5571         27.4612         27.3562         27.2413         27.1156         26.9779    
          26.8269         26.6608         26.4773         26.2733         26.0446         25.7847         25.4836         25.1229         24.6605         23.8794    
   5      28.1693         28.1639         28.1531         28.1367         28.1149         28.0874         28.0542         28.0150         27.9698         27.9184    
          27.8604         27.7957         27.7238         27.6444         27.5571         27.4612         27.3562         27.2413         27.1156         26.9779    
          26.8269         26.6608         26.4773         26.2733         26.0446         25.7847         25.4836         25.1229         24.6605         23.8794    
   6      28.1693         28.1639         28.1531         28.1367         28.1149         28.0874         28.0542         28.0150         27.9698         27.9184    
          27.8604         27.7957         27.7238         27.6444         27.5571         27.4612         27.3562         27.2413         27.1156         26.9779    
          26.8269         26.6608         26.4773         26.2733         26.0446         25.7847         25.4836         25.1229         24.6605         23.8794    
   7      28.1693         28.1639         28.1531         28.1367         28.1149         28.0874         28.0542         28.0150         27.9698         27.9184    
          27.8604         27.7957         27.7238         27.6444         27.5571         27.4612         27.3562         27.2413         27.1156         26.9779    
          26.8269         26.6608         26.4773         26.2733         26.0446         25.7847         25.4836         25.1229         24.6605         23.8794    
   8      28.1693         28.1639         28.1531         28.1367         28.1149         28.0874         28.0542         28.0150         27.9698         27.9184    
          27.8604         27.7957         27.7238         27.6444         27.5571         27.4612         27.3562         27.2413         27.1156         26.9779    
          26.8269         26.6608         26.4773         26.2733         26.0446         25.7847         25.4836         25.1229         24.6605         23.8794    
   9      28.1693         28.1639         28.1531         28.1367         28.1149         28.0874         28.0542         28.0150         27.9698         27.9184    
          27.8604         27.7957         27.7238         27.6444         27.5571         27.4612         27.3562         27.2413         27.1156         26.9779    
          26.8269         26.6608         26.4773         26.2733         26.0446         25.7847         25.4836         25.1229         24.6605         23.8794    
  10      28.1693         28.1639         28.1531         28.1367         28.1149         28.0874         28.0542         28.0150         27.9698         27.9184    
          27.8604         27.7957         27.7238         27.6444         27.5571         27.4612         27.3562         27.2413         27.1156         26.9779    
          26.8269         26.6608         26.4773         26.2733         26.0446         25.7847         25.4836         25.1229         24.6605         23.8794    
  11      28.1693         28.1639         28.1531         28.1367         28.1149         28.0874         28.0542         28.0150         27.9698         27.9184    
          27.8604         27.7957         27.7238         27.6444         27.5571         27.4612         27.3562         27.2413         27.1156         26.9779    
          26.8269         26.6608         26.4773         26.2733         26.0446         25.7847         25.4836         25.1229         24.6605         23.8794    
  12      28.1693         28.1639         28.1531         28.1367         28.1149         28.0874         28.0542         28.0150         27.9698         27.9184    
          27.8604         27.7957         27.7238         27.6444         27.5571         27.4612         27.3562         27.2413         27.1156         26.9779    
          26.8269         26.6608         26.4773         26.2733         26.0446         25.7847         25.4836         25.1229         24.6605         23.8794    
  13      28.1693         28.1639         28.1531         28.1367         28.1149         28.0874         28.0542         28.0150         27.9698         27.9184    
          27.8604         27.7957         27.7238         27.6444         27.5571         27.4612         27.3562         27.2413         27.1156         26.9779    
          26.8269         26.6608         26.4773         26.2733         26.0446         25.7847         25.4836         25.1229         24.6605         23.8794    
  14      28.1693         28.1639         28.1531         28.1367         28.1149         28.0874         28.0542         28.0150         27.9698         27.9184    
          27.8604         27.7957         27.7238         27.6444         27.5571         27.4612         27.3562         27.2413         27.1156         26.9779    
          26.8269         26.6608         26.4773         26.2733         26.0446         25.7847         25.4836         25.1229         24.6605         23.8794    
  15      28.1693         28.1639         28.1531         28.1367         28.1149         28.0874         28.0542         28.0150         27.9698         27.9184    
          27.8604         27.7957         27.7238         27.6444         27.5571         27.4612         27.3562         27.2413         27.1156         26.9779    
          26.8269         26.6608         26.4773         26.2733         26.0446         25.7847         25.4836         25.1229         24.6605         23.8794    
  16      28.1693         28.1639         28.1531         28.1367         28.1149         28.0874         28.0542         28.0150         27.9698         27.9184    
          27.8604         27.7957         27.7238         27.6444         27.5571         27.4612         27.3562         27.2413         27.1156         26.9779    
          26.8269         26.6608         26.4773         26.2733         26.0446         25.7847         25.4836         25.1229         24.6605         23.8794    
  17      28.1693         28.1639         28.1531         28.1367         28.1149         28.0874         28.0542         28.0150         27.9698         27.9184    
          27.8604         27.7957         27.7238         27.6444         27.5571         27.4612         27.3562         27.2413         27.1156         26.9779    
          26.8269         26.6608         26.4773         26.2733         26.0446         25.7847         25.4836         25.1229         24.6605         23.8794    
  18      28.1693         28.1639         28.1531         28.1367         28.1149         28.0874         28.0542         28.0150         27.9698         27.9184    
          27.8604         27.7957         27.7238         27.6444         27.5571         27.4612         27.3562         27.2413         27.1156         26.9779    
          26.8269         26.6608         26.4773         26.2733         26.0446         25.7847         25.4836         25.1229         24.6605         23.8794    
  19      28.1693         28.1639         28.1531         28.1367         28.1149         28.0874         28.0542         28.0150         27.9698         27.9184    
          27.8604         27.7957         27.7238         27.6444         27.5571         27.4612         27.3562         27.2413         27.1156         26.9779    
          26.8269         26.6608         26.4773         26.2733         26.0446         25.7847         25.4836         25.1229         24.6605         23.8794    
  20      28.1693         28.1639         28.1531         28.1367         28.1149         28.0874         28.0542         28.0150         27.9698         27.9184    
          27.8604         27.7957         27.7238         27.6444         27.5571         27.4612         27.3562         27.2413         27.1156         26.9779    
          26.8269         26.6608         26.4773         26.2733         26.0446         25.7847         25.4836         25.1229         24.6605         23.8794    
  21      28.1693         28.1639         28.1531         28.1367         28.1149         28.0874         28.0542         28.0150         27.9698         27.9184    
          27.8604         27.7957         27.7238         27.6444         27.5571         27.4612         27.3562         27.2413         27.1156         26.9779    
          26.8269         26.6608         26.4773         26.2733         26.0446         25.7847         25.4836         25.1229         24.6605         23.8794    
  22      28.1693         28.1639         28.1531         28.1367         28.1149         28.0874         28.0542         28.0150         27.9698         27.9184    
          27.8604         27.7957         27.7238         27.6444         27.5571         27.4612         27.3562         27.2413         27.1156         26.9779    
          26.8269         26.6608         26.4773         26.2733         26.0446         25.7847         25.4836         25.1229         24.6605         23.8794    
  23      28.1693         28.1639         28.1531         28.1367         28.1149         28.0874         28.0542         28.0150         27.9698         27.9184    
          27.8604         27.7957         27.7238         27.6444         27.5571         27.4612         27.3562         27.2413         27.1156         26.9779    
          26.8269         26.6608         26.4773         26.2733         26.0446         25.7847         25.4836         25.1229         24.6605         23.8794    
  24      28.1693         28.1639         28.1531         28.1367         28.1149         28.0874         28.0542         28.0150         27.9698         27.9184    
          27.8604         27.7957         27.7238         27.6444         27.5571         27.4612         27.3562         27.2413         27.1156         26.9779    
          26.8269         26.6608         26.4773         26.2733         26.0446         25.7847         25.4836         25.1229         24.6605         23.8794    
  25      28.1693         28.1639         28.1531         28.1367         28.1149         28.0874         28.0542         28.0150         27.9698         27.9184    
          27.8604         27.7957         27.7238         27.6444         27.5571         27.4612         27.3562         27.2413         27.1156         26.9779    
          26.8269         26.6608         26.4773         26.2733         26.0446         25.7847         25.4836         25.1229         24.6605         23.8794    
  26      28.1693         28.1639         28.1531         28.1367         28.1149         28.0874         28.0542         28.0150         27.9698         27.9184    
          27.8604         27.7957         27.7238         27.6444         27.5571         27.4612         27.3562         27.2413         27.1156         26.9779    
          26.8269         26.6608         26.4773         26.2733         26.0446         25.7847         25.4836         25.1229         24.6605         23.8794    
  27      28.1693         28.1639         28.1531         28.1367         28.1149         28.0874         28.0542         28.0150         27.9698         27.9184    
          27.8604         27.7957         27.7238         27.6444         27.5571         27.4612         27.3562         27.2413         27.1156         26.9779    
          26.8269         26.6608         26.4773         26.2733         26.0446         25.7847         25.4836         25.1229         24.6605         23.8794    
  28      28.1693         28.1639         28.1531         28.1367         28.1149         28.0874         28.0542         28.0150         27.9698         27.9184    
          27.8604         27.7957         27.7238         27.6444         27.5571         27.4612         27.3562         27.2413         27.1156         26.9779    
          26.8269         26.6608         26.4773         26.2733         26.0446         25.7847         25.4836         25.1229         24.6605         23.8794    
  29      28.1693         28.1639         28.1531         28.1367         28.1149         28.0874         28.0542         28.0150         27.9698         27.9184    
          27.8604         27.7957         27.7238         27.6444         27.5571         27.4612         27.3562         27.2413         27.1156         26.9779    
          26.8269         26.6608         26.4773         26.2733         26.0446         25.7847         25.4836         25.1229         24.6605         23.8794    
  30      28.1693         28.1639         28.1531         28.1367         28.1149         28.0874         28.0542         28.0150         27.9698         27.9184    
          27.8604         27.7957         27.7238         27.6444         27.5571         27.4612         27.3562         27.2413         27.1156         26.9779    
          26.8269         26.6608         26.4773         26.2733         26.0446         25.7847         25.4836         25.1229         24.6605         23.8794    

 HEAD WILL BE SAVED ON UNIT 1019 AT END OF TIME STEP   10, STRESS PERIOD   26


  VOLUME BUDGET FOR ENTIRE MODEL AT END OF TIME STEP   10, STRESS PERIOD  26
  ---------------------------------------------------------------------------------------------------

     CUMULATIVE VOLUME      L**3       RATES FOR THIS TIME STEP      L**3/T          PACKAGE NAME    
     ------------------                 ------------------------                     ----------------

           IN:                                      IN:
           ---                                      ---
              STO-SS =          39.3262                STO-SS =           0.0000     STORAGE         
              STO-SY =       25358.7934                STO-SY =           0.0000     STORAGE         
                 RCH =      128235.6693                   RCH =         286.0273     RCHA            
                 CHD =        1305.4009                   CHD =           0.0000     CHD             

            TOTAL IN =      154939.1898              TOTAL IN =         286.0273

          OUT:                                     OUT:
          ----                                     ----
              STO-SS =          35.2820                STO-SS =       8.5342E-02     STORAGE         
              STO-SY =       22841.1089                STO-SY =          53.1589     STORAGE         
                 RCH =           0.0000                   RCH =           0.0000     RCHA            
                 CHD =      132062.5599                   CHD =         232.7897     CHD             

           TOTAL OUT =      154938.9508             TOTAL OUT =         286.0340

            IN - OUT =           0.2390              IN - OUT =      -6.6710E-03

 PERCENT DISCREPANCY =           0.00     PERCENT DISCREPANCY =          -0.00




         TIME SUMMARY AT END OF TIME STEP   10 IN STRESS PERIOD   26
                    SECONDS     MINUTES      HOURS       DAYS        YEARS
                    -----------------------------------------------------------
   TIME STEP LENGTH 2.59200E+05  4320.0      72.000      3.0000     8.21355E-03
 STRESS PERIOD TIME 2.59200E+06  43200.      720.00      30.000     8.21355E-02
         TOTAL TIME 6.48864E+07 1.08144E+06  18024.      751.00      2.0561    

 OUTPUT CONTROL FOR STRESS PERIOD 27 IS REPEATED USING SETTINGS FROM A PREVIOUS STRESS PERIOD.


 STRESS PERIOD 27 IS TRANSIENT


                 RECHARGE =  0.2465750E-02
 UBDSV1 SAVING           STO-SS ON UNIT   1018 AT TIME STEP      1, STRESS PERIOD     27
 UBDSV1 SAVING           STO-SY ON UNIT   1018 AT TIME STEP      1, STRESS PERIOD     27
 UBDSV1 SAVING     FLOW-JA-FACE ON UNIT   1018 AT TIME STEP      1, STRESS PERIOD     27
 UBDSV06 SAVING              RCH IN MODEL TEST_TRANS       PACKAGE TEST_TRANS      CONNECTED TO MODEL TEST_TRANS       PACKAGE RCHA             ON UNIT   1018 AT TIME STEP      1, STRESS PERIOD     27
 UBDSV06 SAVING              CHD IN MODEL TEST_TRANS       PACKAGE TEST_TRANS      CONNECTED TO MODEL TEST_TRANS       PACKAGE CHD              ON UNIT   1018 AT TIME STEP      1, STRESS PERIOD     27
1
  HEAD IN LAYER   1 AT END OF TIME STEP   1 IN STRESS PERIOD   27
  ---------------------------------------------------------------------------

                1               2               3               4               5               6               7               8               9              10
               11              12              13              14              15              16              17              18              19              20
               21              22              23              24              25              26              27              28              29              30
 ................................................................................................................................................................
   1      28.1699         28.1644         28.1535         28.1371         28.1152         28.0875         28.0541         28.0148         27.9694         27.9177    
          27.8594         27.7944         27.7222         27.6425         27.5547         27.4585         27.3531         27.2378         27.1116         26.9735    
          26.8220         26.6555         26.4716         26.2672         26.0381         25.7779         25.4767         25.1163         24.6554         23.8851    
   2      28.1699         28.1644         28.1535         28.1371         28.1152         28.0875         28.0541         28.0148         27.9694         27.9177    
          27.8594         27.7944         27.7222         27.6425         27.5547         27.4585         27.3531         27.2378         27.1116         26.9735    
          26.8220         26.6555         26.4716         26.2672         26.0381         25.7779         25.4767         25.1163         24.6554         23.8851    
   3      28.1699         28.1644         28.1535         28.1371         28.1152         28.0875         28.0541         28.0148         27.9694         27.9177    
          27.8594         27.7944         27.7222         27.6425         27.5547         27.4585         27.3531         27.2378         27.1116         26.9735    
          26.8220         26.6555         26.4715         26.2672         26.0381         25.7779         25.4767         25.1163         24.6554         23.8851    
   4      28.1699         28.1644         28.1535         28.1371         28.1152         28.0875         28.0541         28.0148         27.9694         27.9177    
          27.8594         27.7944         27.7222         27.6425         27.5547         27.4585         27.3531         27.2378         27.1116         26.9735    
          26.8220         26.6555         26.4715         26.2672         26.0380         25.7779         25.4767         25.1163         24.6554         23.8851    
   5      28.1699         28.1644         28.1535         28.1371         28.1152         28.0875         28.0541         28.0148         27.9694         27.9177    
          27.8594         27.7944         27.7222         27.6425         27.5547         27.4585         27.3531         27.2378         27.1116         26.9735    
          26.8220         26.6555         26.4715         26.2672         26.0380         25.7779         25.4767         25.1163         24.6554         23.8851    
   6      28.1699         28.1644         28.1535         28.1371         28.1152         28.0875         28.0541         28.0148         27.9694         27.9177    
          27.8594         27.7944         27.7222         27.6425         27.5547         27.4585         27.3531         27.2378         27.1116         26.9735    
          26.8220         26.6555         26.4715         26.2672         26.0380         25.7779         25.4767         25.1163         24.6554         23.8851    
   7      28.1699         28.1644         28.1535         28.1371         28.1152         28.0875         28.0541         28.0148         27.9694         27.9177    
          27.8594         27.7944         27.7222         27.6425         27.5547         27.4585         27.3531         27.2378         27.1116         26.9735    
          26.8220         26.6555         26.4715         26.2672         26.0380         25.7779         25.4767         25.1163         24.6554         23.8851    
   8      28.1699         28.1644         28.1535         28.1371         28.1152         28.0875         28.0541         28.0148         27.9694         27.9177    
          27.8594         27.7944         27.7222         27.6425         27.5547         27.4585         27.3531         27.2378         27.1116         26.9735    
          26.8220         26.6555         26.4715         26.2672         26.0380         25.7779         25.4767         25.1163         24.6554         23.8851    
   9      28.1699         28.1644         28.1535         28.1371         28.1152         28.0875         28.0541         28.0148         27.9694         27.9177    
          27.8594         27.7944         27.7222         27.6425         27.5547         27.4585         27.3531         27.2378         27.1116         26.9735    
          26.8220         26.6555         26.4715         26.2672         26.0380         25.7779         25.4767         25.1163         24.6554         23.8851    
  10      28.1699         28.1644         28.1535         28.1371         28.1152         28.0875         28.0541         28.0148         27.9694         27.9177    
          27.8594         27.7944         27.7222         27.6425         27.5547         27.4585         27.3531         27.2378         27.1116         26.9735    
          26.8220         26.6555         26.4715         26.2672         26.0380         25.7779         25.4767         25.1163         24.6554         23.8851    
  11      28.1699         28.1644         28.1535         28.1371         28.1152         28.0875         28.0541         28.0148         27.9694         27.9177    
          27.8594         27.7944         27.7222         27.6425         27.5547         27.4585         27.3531         27.2378         27.1116         26.9735    
          26.8220         26.6555         26.4715         26.2672         26.0380         25.7779         25.4767         25.1163         24.6554         23.8851    
  12      28.1699         28.1644         28.1535         28.1371         28.1152         28.0875         28.0541         28.0148         27.9694         27.9177    
          27.8594         27.7944         27.7222         27.6425         27.5547         27.4585         27.3531         27.2378         27.1116         26.9735    
          26.8220         26.6555         26.4715         26.2672         26.0380         25.7779         25.4767         25.1163         24.6554         23.8851    
  13      28.1699         28.1644         28.1535         28.1371         28.1152         28.0875         28.0541         28.0148         27.9694         27.9177    
          27.8594         27.7944         27.7222         27.6425         27.5547         27.4585         27.3531         27.2378         27.1116         26.9735    
          26.8220         26.6555         26.4715         26.2672         26.0380         25.7779         25.4767         25.1163         24.6554         23.8851    
  14      28.1699         28.1644         28.1535         28.1371         28.1152         28.0875         28.0541         28.0148         27.9694         27.9177    
          27.8594         27.7944         27.7222         27.6425         27.5547         27.4585         27.3531         27.2378         27.1116         26.9735    
          26.8220         26.6555         26.4715         26.2672         26.0380         25.7779         25.4767         25.1163         24.6554         23.8851    
  15      28.1699         28.1644         28.1535         28.1371         28.1152         28.0875         28.0541         28.0148         27.9694         27.9177    
          27.8594         27.7944         27.7222         27.6425         27.5547         27.4585         27.3531         27.2378         27.1116         26.9735    
          26.8220         26.6555         26.4715         26.2672         26.0380         25.7779         25.4767         25.1163         24.6554         23.8851    
  16      28.1699         28.1644         28.1535         28.1371         28.1152         28.0875         28.0541         28.0148         27.9694         27.9177    
          27.8594         27.7944         27.7222         27.6425         27.5547         27.4585         27.3531         27.2378         27.1116         26.9735    
          26.8220         26.6555         26.4715         26.2672         26.0380         25.7779         25.4767         25.1163         24.6554         23.8851    
  17      28.1699         28.1644         28.1535         28.1371         28.1152         28.0875         28.0541         28.0148         27.9694         27.9177    
          27.8594         27.7944         27.7222         27.6425         27.5547         27.4585         27.3531         27.2378         27.1116         26.9735    
          26.8220         26.6555         26.4715         26.2672         26.0380         25.7779         25.4767         25.1163         24.6554         23.8851    
  18      28.1699         28.1644         28.1535         28.1371         28.1152         28.0875         28.0541         28.0148         27.9694         27.9177    
          27.8594         27.7944         27.7222         27.6425         27.5547         27.4585         27.3531         27.2378         27.1116         26.9735    
          26.8220         26.6555         26.4715         26.2672         26.0380         25.7779         25.4767         25.1163         24.6554         23.8851    
  19      28.1699         28.1644         28.1535         28.1371         28.1152         28.0875         28.0541         28.0148         27.9694         27.9177    
          27.8594         27.7944         27.7222         27.6425         27.5547         27.4585         27.3531         27.2378         27.1116         26.9735    
          26.8220         26.6555         26.4715         26.2672         26.0380         25.7779         25.4767         25.1163         24.6554         23.8851    
  20      28.1699         28.1644         28.1535         28.1371         28.1152         28.0875         28.0541         28.0148         27.9694         27.9177    
          27.8594         27.7944         27.7222         27.6425         27.5547         27.4585         27.3531         27.2378         27.1116         26.9735    
          26.8220         26.6555         26.4715         26.2672         26.0380         25.7779         25.4767         25.1163         24.6554         23.8851    
  21      28.1699         28.1644         28.1535         28.1371         28.1152         28.0875         28.0541         28.0148         27.9694         27.9177    
          27.8594         27.7944         27.7222         27.6425         27.5547         27.4585         27.3531         27.2378         27.1116         26.9735    
          26.8220         26.6555         26.4715         26.2672         26.0380         25.7779         25.4767         25.1163         24.6554         23.8851    
  22      28.1699         28.1644         28.1535         28.1371         28.1152         28.0875         28.0541         28.0148         27.9694         27.9177    
          27.8594         27.7944         27.7222         27.6425         27.5547         27.4585         27.3531         27.2378         27.1116         26.9735    
          26.8220         26.6555         26.4715         26.2672         26.0380         25.7779         25.4767         25.1163         24.6554         23.8851    
  23      28.1699         28.1644         28.1535         28.1371         28.1152         28.0875         28.0541         28.0148         27.9694         27.9177    
          27.8594         27.7944         27.7222         27.6425         27.5547         27.4585         27.3531         27.2378         27.1116         26.9735    
          26.8220         26.6555         26.4715         26.2672         26.0380         25.7779         25.4767         25.1163         24.6554         23.8851    
  24      28.1699         28.1644         28.1535         28.1371         28.1152         28.0875         28.0541         28.0148         27.9694         27.9177    
          27.8594         27.7944         27.7222         27.6425         27.5547         27.4585         27.3531         27.2378         27.1116         26.9735    
          26.8220         26.6555         26.4715         26.2672         26.0380         25.7779         25.4767         25.1163         24.6554         23.8851    
  25      28.1699         28.1644         28.1535         28.1371         28.1152         28.0875         28.0541         28.0148         27.9694         27.9177    
          27.8594         27.7944         27.7222         27.6425         27.5547         27.4585         27.3531         27.2378         27.1116         26.9735    
          26.8220         26.6555         26.4715         26.2672         26.0380         25.7779         25.4767         25.1163         24.6554         23.8851    
  26      28.1699         28.1644         28.1535         28.1371         28.1152         28.0875         28.0541         28.0148         27.9694         27.9177    
          27.8594         27.7944         27.7222         27.6425         27.5547         27.4585         27.3531         27.2378         27.1116         26.9735    
          26.8220         26.6555         26.4715         26.2672         26.0380         25.7779         25.4767         25.1163         24.6554         23.8851    
  27      28.1699         28.1644         28.1535         28.1371         28.1152         28.0875         28.0541         28.0148         27.9694         27.9177    
          27.8594         27.7944         27.7222         27.6425         27.5547         27.4585         27.3531         27.2378         27.1116         26.9735    
          26.8220         26.6555         26.4715         26.2672         26.0380         25.7779         25.4767         25.1163         24.6554         23.8851    
  28      28.1699         28.1644         28.1535         28.1371         28.1152         28.0875         28.0541         28.0148         27.9694         27.9177    
          27.8594         27.7944         27.7222         27.6425         27.5547         27.4585         27.3531         27.2378         27.1116         26.9735    
          26.8220         26.6555         26.4715         26.2672         26.0380         25.7779         25.4767         25.1163         24.6554         23.8851    
  29      28.1699         28.1644         28.1535         28.1371         28.1152         28.0875         28.0541         28.0148         27.9694         27.9177    
          27.8594         27.7944         27.7222         27.6425         27.5547         27.4585         27.3531         27.2378         27.1116         26.9735    
          26.8220         26.6555         26.4715         26.2672         26.0380         25.7779         25.4767         25.1163         24.6554         23.8851    
  30      28.1699         28.1644         28.1535         28.1371         28.1152         28.0875         28.0541         28.0148         27.9694         27.9177    
          27.8594         27.7944         27.7222         27.6425         27.5547         27.4585         27.3531         27.2378         27.1116         26.9735    
          26.8220         26.6555         26.4715         26.2672         26.0380         25.7779         25.4767         25.1163         24.6555         23.8851    

 HEAD WILL BE SAVED ON UNIT 1019 AT END OF TIME STEP    1, STRESS PERIOD   27



         TIME SUMMARY AT END OF TIME STEP    1 IN STRESS PERIOD   27
                    SECONDS     MINUTES      HOURS       DAYS        YEARS
                    -----------------------------------------------------------
   TIME STEP LENGTH 2.59200E+05  4320.0      72.000      3.0000     8.21355E-03
 STRESS PERIOD TIME 2.59200E+05  4320.0      72.000      3.0000     8.21355E-03
         TOTAL TIME 6.51456E+07 1.08576E+06  18096.      754.00      2.0643    
 UBDSV1 SAVING           STO-SS ON UNIT   1018 AT TIME STEP      2, STRESS PERIOD     27
 UBDSV1 SAVING           STO-SY ON UNIT   1018 AT TIME STEP      2, STRESS PERIOD     27
 UBDSV1 SAVING     FLOW-JA-FACE ON UNIT   1018 AT TIME STEP      2, STRESS PERIOD     27
 UBDSV06 SAVING              RCH IN MODEL TEST_TRANS       PACKAGE TEST_TRANS      CONNECTED TO MODEL TEST_TRANS       PACKAGE RCHA             ON UNIT   1018 AT TIME STEP      2, STRESS PERIOD     27
 UBDSV06 SAVING              CHD IN MODEL TEST_TRANS       PACKAGE TEST_TRANS      CONNECTED TO MODEL TEST_TRANS       PACKAGE CHD              ON UNIT   1018 AT TIME STEP      2, STRESS PERIOD     27

 HEAD WILL BE SAVED ON UNIT 1019 AT END OF TIME STEP    2, STRESS PERIOD   27
 UBDSV1 SAVING           STO-SS ON UNIT   1018 AT TIME STEP      3, STRESS PERIOD     27
 UBDSV1 SAVING           STO-SY ON UNIT   1018 AT TIME STEP      3, STRESS PERIOD     27
 UBDSV1 SAVING     FLOW-JA-FACE ON UNIT   1018 AT TIME STEP      3, STRESS PERIOD     27
 UBDSV06 SAVING              RCH IN MODEL TEST_TRANS       PACKAGE TEST_TRANS      CONNECTED TO MODEL TEST_TRANS       PACKAGE RCHA             ON UNIT   1018 AT TIME STEP      3, STRESS PERIOD     27
 UBDSV06 SAVING              CHD IN MODEL TEST_TRANS       PACKAGE TEST_TRANS      CONNECTED TO MODEL TEST_TRANS       PACKAGE CHD              ON UNIT   1018 AT TIME STEP      3, STRESS PERIOD     27

 HEAD WILL BE SAVED ON UNIT 1019 AT END OF TIME STEP    3, STRESS PERIOD   27
 UBDSV1 SAVING           STO-SS ON UNIT   1018 AT TIME STEP      4, STRESS PERIOD     27
 UBDSV1 SAVING           STO-SY ON UNIT   1018 AT TIME STEP      4, STRESS PERIOD     27
 UBDSV1 SAVING     FLOW-JA-FACE ON UNIT   1018 AT TIME STEP      4, STRESS PERIOD     27
 UBDSV06 SAVING              RCH IN MODEL TEST_TRANS       PACKAGE TEST_TRANS      CONNECTED TO MODEL TEST_TRANS       PACKAGE RCHA             ON UNIT   1018 AT TIME STEP      4, STRESS PERIOD     27
 UBDSV06 SAVING              CHD IN MODEL TEST_TRANS       PACKAGE TEST_TRANS      CONNECTED TO MODEL TEST_TRANS       PACKAGE CHD              ON UNIT   1018 AT TIME STEP      4, STRESS PERIOD     27

 HEAD WILL BE SAVED ON UNIT 1019 AT END OF TIME STEP    4, STRESS PERIOD   27
 UBDSV1 SAVING           STO-SS ON UNIT   1018 AT TIME STEP      5, STRESS PERIOD     27
 UBDSV1 SAVING           STO-SY ON UNIT   1018 AT TIME STEP      5, STRESS PERIOD     27
 UBDSV1 SAVING     FLOW-JA-FACE ON UNIT   1018 AT TIME STEP      5, STRESS PERIOD     27
 UBDSV06 SAVING              RCH IN MODEL TEST_TRANS       PACKAGE TEST_TRANS      CONNECTED TO MODEL TEST_TRANS       PACKAGE RCHA             ON UNIT   1018 AT TIME STEP      5, STRESS PERIOD     27
 UBDSV06 SAVING              CHD IN MODEL TEST_TRANS       PACKAGE TEST_TRANS      CONNECTED TO MODEL TEST_TRANS       PACKAGE CHD              ON UNIT   1018 AT TIME STEP      5, STRESS PERIOD     27

 HEAD WILL BE SAVED ON UNIT 1019 AT END OF TIME STEP    5, STRESS PERIOD   27
 UBDSV1 SAVING           STO-SS ON UNIT   1018 AT TIME STEP      6, STRESS PERIOD     27
 UBDSV1 SAVING           STO-SY ON UNIT   1018 AT TIME STEP      6, STRESS PERIOD     27
 UBDSV1 SAVING     FLOW-JA-FACE ON UNIT   1018 AT TIME STEP      6, STRESS PERIOD     27
 UBDSV06 SAVING              RCH IN MODEL TEST_TRANS       PACKAGE TEST_TRANS      CONNECTED TO MODEL TEST_TRANS       PACKAGE RCHA             ON UNIT   1018 AT TIME STEP      6, STRESS PERIOD     27
 UBDSV06 SAVING              CHD IN MODEL TEST_TRANS       PACKAGE TEST_TRANS      CONNECTED TO MODEL TEST_TRANS       PACKAGE CHD              ON UNIT   1018 AT TIME STEP      6, STRESS PERIOD     27

 HEAD WILL BE SAVED ON UNIT 1019 AT END OF TIME STEP    6, STRESS PERIOD   27
 UBDSV1 SAVING           STO-SS ON UNIT   1018 AT TIME STEP      7, STRESS PERIOD     27
 UBDSV1 SAVING           STO-SY ON UNIT   1018 AT TIME STEP      7, STRESS PERIOD     27
 UBDSV1 SAVING     FLOW-JA-FACE ON UNIT   1018 AT TIME STEP      7, STRESS PERIOD     27
 UBDSV06 SAVING              RCH IN MODEL TEST_TRANS       PACKAGE TEST_TRANS      CONNECTED TO MODEL TEST_TRANS       PACKAGE RCHA             ON UNIT   1018 AT TIME STEP      7, STRESS PERIOD     27
 UBDSV06 SAVING              CHD IN MODEL TEST_TRANS       PACKAGE TEST_TRANS      CONNECTED TO MODEL TEST_TRANS       PACKAGE CHD              ON UNIT   1018 AT TIME STEP      7, STRESS PERIOD     27

 HEAD WILL BE SAVED ON UNIT 1019 AT END OF TIME STEP    7, STRESS PERIOD   27
 UBDSV1 SAVING           STO-SS ON UNIT   1018 AT TIME STEP      8, STRESS PERIOD     27
 UBDSV1 SAVING           STO-SY ON UNIT   1018 AT TIME STEP      8, STRESS PERIOD     27
 UBDSV1 SAVING     FLOW-JA-FACE ON UNIT   1018 AT TIME STEP      8, STRESS PERIOD     27
 UBDSV06 SAVING              RCH IN MODEL TEST_TRANS       PACKAGE TEST_TRANS      CONNECTED TO MODEL TEST_TRANS       PACKAGE RCHA             ON UNIT   1018 AT TIME STEP      8, STRESS PERIOD     27
 UBDSV06 SAVING              CHD IN MODEL TEST_TRANS       PACKAGE TEST_TRANS      CONNECTED TO MODEL TEST_TRANS       PACKAGE CHD              ON UNIT   1018 AT TIME STEP      8, STRESS PERIOD     27

 HEAD WILL BE SAVED ON UNIT 1019 AT END OF TIME STEP    8, STRESS PERIOD   27
 UBDSV1 SAVING           STO-SS ON UNIT   1018 AT TIME STEP      9, STRESS PERIOD     27
 UBDSV1 SAVING           STO-SY ON UNIT   1018 AT TIME STEP      9, STRESS PERIOD     27
 UBDSV1 SAVING     FLOW-JA-FACE ON UNIT   1018 AT TIME STEP      9, STRESS PERIOD     27
 UBDSV06 SAVING              RCH IN MODEL TEST_TRANS       PACKAGE TEST_TRANS      CONNECTED TO MODEL TEST_TRANS       PACKAGE RCHA             ON UNIT   1018 AT TIME STEP      9, STRESS PERIOD     27
 UBDSV06 SAVING              CHD IN MODEL TEST_TRANS       PACKAGE TEST_TRANS      CONNECTED TO MODEL TEST_TRANS       PACKAGE CHD              ON UNIT   1018 AT TIME STEP      9, STRESS PERIOD     27

 HEAD WILL BE SAVED ON UNIT 1019 AT END OF TIME STEP    9, STRESS PERIOD   27
 UBDSV1 SAVING           STO-SS ON UNIT   1018 AT TIME STEP     10, STRESS PERIOD     27
 UBDSV1 SAVING           STO-SY ON UNIT   1018 AT TIME STEP     10, STRESS PERIOD     27
 UBDSV1 SAVING     FLOW-JA-FACE ON UNIT   1018 AT TIME STEP     10, STRESS PERIOD     27
 UBDSV06 SAVING              RCH IN MODEL TEST_TRANS       PACKAGE TEST_TRANS      CONNECTED TO MODEL TEST_TRANS       PACKAGE RCHA             ON UNIT   1018 AT TIME STEP     10, STRESS PERIOD     27
 UBDSV06 SAVING              CHD IN MODEL TEST_TRANS       PACKAGE TEST_TRANS      CONNECTED TO MODEL TEST_TRANS       PACKAGE CHD              ON UNIT   1018 AT TIME STEP     10, STRESS PERIOD     27
1
  HEAD IN LAYER   1 AT END OF TIME STEP  10 IN STRESS PERIOD   27
  ---------------------------------------------------------------------------

                1               2               3               4               5               6               7               8               9              10
               11              12              13              14              15              16              17              18              19              20
               21              22              23              24              25              26              27              28              29              30
 ................................................................................................................................................................
   1      28.1681         28.1625         28.1512         28.1343         28.1116         28.0831         28.0486         28.0081         27.9613         27.9081    
          27.8482         27.7814         27.7073         27.6256         27.5359         27.4377         27.3302         27.2129         27.0848         26.9449    
          26.7919         26.6240         26.4390         26.2341         26.0052         25.7460         25.4470         25.0905         24.6364         23.8851    
   2      28.1681         28.1625         28.1512         28.1343         28.1116         28.0831         28.0486         28.0081         27.9613         27.9081    
          27.8482         27.7814         27.7073         27.6256         27.5359         27.4377         27.3302         27.2129         27.0848         26.9449    
          26.7919         26.6240         26.4390         26.2341         26.0052         25.7460         25.4470         25.0905         24.6364         23.8851    
   3      28.1681         28.1625         28.1512         28.1343         28.1116         28.0831         28.0486         28.0081         27.9613         27.9081    
          27.8482         27.7814         27.7073         27.6256         27.5359         27.4377         27.3302         27.2129         27.0848         26.9449    
          26.7919         26.6240         26.4390         26.2341         26.0052         25.7460         25.4470         25.0905         24.6364         23.8851    
   4      28.1681         28.1625         28.1512         28.1343         28.1116         28.0831         28.0486         28.0081         27.9613         27.9081    
          27.8482         27.7814         27.7073         27.6256         27.5359         27.4377         27.3302         27.2129         27.0848         26.9449    
          26.7919         26.6240         26.4390         26.2341         26.0052         25.7460         25.4470         25.0905         24.6364         23.8851    
   5      28.1681         28.1625         28.1512         28.1343         28.1116         28.0831         28.0486         28.0081         27.9613         27.9081    
          27.8482         27.7814         27.7073         27.6256         27.5359         27.4377         27.3302         27.2129         27.0848         26.9449    
          26.7919         26.6240         26.4390         26.2341         26.0052         25.7460         25.4470         25.0905         24.6364         23.8851    
   6      28.1681         28.1625         28.1512         28.1343         28.1116         28.0831         28.0486         28.0081         27.9613         27.9081    
          27.8482         27.7814         27.7073         27.6256         27.5359         27.4377         27.3302         27.2129         27.0848         26.9449    
          26.7919         26.6240         26.4390         26.2341         26.0052         25.7460         25.4470         25.0905         24.6364         23.8851    
   7      28.1681         28.1625         28.1512         28.1343         28.1116         28.0831         28.0486         28.0081         27.9613         27.9081    
          27.8482         27.7814         27.7073         27.6256         27.5359         27.4377         27.3302         27.2129         27.0848         26.9449    
          26.7919         26.6240         26.4390         26.2341         26.0052         25.7460         25.4470         25.0905         24.6364         23.8851    
   8      28.1681         28.1625         28.1512         28.1343         28.1116         28.0831         28.0486         28.0081         27.9613         27.9081    
          27.8482         27.7814         27.7073         27.6256         27.5359         27.4377         27.3302         27.2129         27.0848         26.9449    
          26.7919         26.6240         26.4390         26.2341         26.0052         25.7460         25.4470         25.0905         24.6364         23.8851    
   9      28.1681         28.1625         28.1512         28.1343         28.1116         28.0831         28.0486         28.0081         27.9613         27.9081    
          27.8482         27.7814         27.7073         27.6256         27.5359         27.4377         27.3302         27.2129         27.0848         26.9449    
          26.7919         26.6240         26.4390         26.2341         26.0052         25.7460         25.4470         25.0905         24.6364         23.8851    
  10      28.1681         28.1625         28.1512         28.1343         28.1116         28.0831         28.0486         28.0081         27.9613         27.9081    
          27.8482         27.7814         27.7073         27.6256         27.5359         27.4377         27.3302         27.2129         27.0848         26.9449    
          26.7919         26.6240         26.4390         26.2341         26.0052         25.7460         25.4470         25.0905         24.6364         23.8851    
  11      28.1681         28.1625         28.1512         28.1343         28.1116         28.0831         28.0486         28.0081         27.9613         27.9081    
          27.8482         27.7814         27.7073         27.6256         27.5359         27.4377         27.3302         27.2129         27.0848         26.9449    
          26.7919         26.6240         26.4390         26.2341         26.0052         25.7460         25.4470         25.0905         24.6364         23.8851    
  12      28.1681         28.1625         28.1512         28.1343         28.1116         28.0831         28.0486         28.0081         27.9613         27.9081    
          27.8482         27.7814         27.7073         27.6256         27.5359         27.4377         27.3302         27.2129         27.0848         26.9449    
          26.7919         26.6240         26.4390         26.2341         26.0052         25.7460         25.4470         25.0905         24.6364         23.8851    
  13      28.1681         28.1625         28.1512         28.1343         28.1116         28.0831         28.0486         28.0081         27.9613         27.9081    
          27.8482         27.7814         27.7073         27.6256         27.5359         27.4377         27.3302         27.2129         27.0848         26.9449    
          26.7919         26.6240         26.4390         26.2341         26.0052         25.7460         25.4470         25.0905         24.6364         23.8851    
  14      28.1681         28.1625         28.1512         28.1343         28.1116         28.0831         28.0486         28.0081         27.9613         27.9081    
          27.8482         27.7814         27.7073         27.6256         27.5359         27.4377         27.3302         27.2129         27.0848         26.9449    
          26.7919         26.6240         26.4390         26.2341         26.0052         25.7460         25.4470         25.0905         24.6364         23.8851    
  15      28.1681         28.1625         28.1512         28.1343         28.1116         28.0831         28.0486         28.0081         27.9613         27.9081    
          27.8482         27.7814         27.7073         27.6256         27.5359         27.4377         27.3302         27.2129         27.0848         26.9449    
          26.7919         26.6240         26.4390         26.2341         26.0052         25.7460         25.4470         25.0905         24.6364         23.8851    
  16      28.1681         28.1625         28.1512         28.1343         28.1116         28.0831         28.0486         28.0081         27.9613         27.9081    
          27.8482         27.7814         27.7073         27.6256         27.5359         27.4377         27.3302         27.2129         27.0848         26.9449    
          26.7919         26.6240         26.4390         26.2341         26.0052         25.7460         25.4470         25.0905         24.6364         23.8851    
  17      28.1681         28.1625         28.1512         28.1343         28.1116         28.0831         28.0486         28.0081         27.9613         27.9081    
          27.8482         27.7814         27.7073         27.6256         27.5359         27.4377         27.3302         27.2129         27.0848         26.9449    
          26.7919         26.6240         26.4390         26.2341         26.0052         25.7460         25.4470         25.0905         24.6364         23.8851    
  18      28.1681         28.1625         28.1512         28.1343         28.1116         28.0831         28.0486         28.0081         27.9613         27.9081    
          27.8482         27.7814         27.7073         27.6256         27.5359         27.4377         27.3302         27.2129         27.0848         26.9449    
          26.7919         26.6240         26.4390         26.2341         26.0052         25.7460         25.4470         25.0905         24.6364         23.8851    
  19      28.1681         28.1625         28.1512         28.1343         28.1116         28.0831         28.0486         28.0081         27.9613         27.9081    
          27.8482         27.7814         27.7073         27.6256         27.5359         27.4377         27.3302         27.2129         27.0848         26.9449    
          26.7919         26.6240         26.4390         26.2341         26.0052         25.7460         25.4470         25.0905         24.6364         23.8851    
  20      28.1681         28.1625         28.1512         28.1343         28.1116         28.0831         28.0486         28.0081         27.9613         27.9081    
          27.8482         27.7814         27.7073         27.6256         27.5359         27.4377         27.3302         27.2129         27.0848         26.9449    
          26.7919         26.6240         26.4390         26.2341         26.0052         25.7460         25.4470         25.0905         24.6364         23.8851    
  21      28.1681         28.1625         28.1512         28.1343         28.1116         28.0831         28.0486         28.0081         27.9613         27.9081    
          27.8482         27.7814         27.7073         27.6256         27.5359         27.4377         27.3302         27.2129         27.0848         26.9449    
          26.7919         26.6240         26.4390         26.2341         26.0052         25.7460         25.4470         25.0905         24.6364         23.8851    
  22      28.1681         28.1625         28.1512         28.1343         28.1116         28.0831         28.0486         28.0081         27.9613         27.9081    
          27.8482         27.7814         27.7073         27.6256         27.5359         27.4377         27.3302         27.2129         27.0848         26.9449    
          26.7919         26.6240         26.4390         26.2341         26.0052         25.7460         25.4470         25.0905         24.6364         23.8851    
  23      28.1681         28.1625         28.1512         28.1343         28.1116         28.0831         28.0486         28.0081         27.9613         27.9081    
          27.8482         27.7814         27.7073         27.6256         27.5359         27.4377         27.3302         27.2129         27.0848         26.9449    
          26.7919         26.6240         26.4390         26.2341         26.0052         25.7460         25.4470         25.0905         24.6364         23.8851    
  24      28.1681         28.1625         28.1512         28.1343         28.1116         28.0831         28.0486         28.0081         27.9613         27.9081    
          27.8482         27.7814         27.7073         27.6256         27.5359         27.4377         27.3302         27.2129         27.0848         26.9449    
          26.7919         26.6240         26.4390         26.2341         26.0052         25.7460         25.4470         25.0905         24.6364         23.8851    
  25      28.1681         28.1625         28.1512         28.1343         28.1116         28.0831         28.0486         28.0081         27.9613         27.9081    
          27.8482         27.7814         27.7073         27.6256         27.5359         27.4377         27.3302         27.2129         27.0848         26.9449    
          26.7919         26.6240         26.4390         26.2341         26.0052         25.7460         25.4470         25.0905         24.6364         23.8851    
  26      28.1681         28.1625         28.1512         28.1343         28.1116         28.0831         28.0486         28.0081         27.9613         27.9081    
          27.8482         27.7814         27.7073         27.6256         27.5359         27.4377         27.3302         27.2129         27.0848         26.9449    
          26.7919         26.6240         26.4390         26.2341         26.0052         25.7460         25.4470         25.0905         24.6364         23.8851    
  27      28.1681         28.1625         28.1512         28.1343         28.1116         28.0831         28.0486         28.0081         27.9613         27.9081    
          27.8482         27.7814         27.7073         27.6256         27.5359         27.4377         27.3302         27.2129         27.0848         26.9449    
          26.7919         26.6240         26.4390         26.2341         26.0052         25.7460         25.4470         25.0905         24.6364         23.8851    
  28      28.1681         28.1625         28.1512         28.1343         28.1116         28.0831         28.0486         28.0081         27.9613         27.9081    
          27.8482         27.7814         27.7073         27.6256         27.5359         27.4377         27.3302         27.2129         27.0848         26.9449    
          26.7919         26.6240         26.4390         26.2341         26.0052         25.7460         25.4470         25.0905         24.6364         23.8851    
  29      28.1681         28.1625         28.1512         28.1343         28.1116         28.0831         28.0486         28.0081         27.9613         27.9081    
          27.8482         27.7814         27.7073         27.6256         27.5359         27.4377         27.3302         27.2129         27.0848         26.9449    
          26.7919         26.6240         26.4390         26.2341         26.0052         25.7460         25.4470         25.0905         24.6364         23.8851    
  30      28.1681         28.1625         28.1512         28.1343         28.1116         28.0831         28.0486         28.0081         27.9613         27.9081    
          27.8482         27.7814         27.7073         27.6256         27.5359         27.4377         27.3302         27.2129         27.0848         26.9449    
          26.7919         26.6240         26.4390         26.2341         26.0052         25.7460         25.4470         25.0905         24.6364         23.8851    

 HEAD WILL BE SAVED ON UNIT 1019 AT END OF TIME STEP   10, STRESS PERIOD   27


  VOLUME BUDGET FOR ENTIRE MODEL AT END OF TIME STEP   10, STRESS PERIOD  27
  ---------------------------------------------------------------------------------------------------

     CUMULATIVE VOLUME      L**3       RATES FOR THIS TIME STEP      L**3/T          PACKAGE NAME    
     ------------------                 ------------------------                     ----------------

           IN:                                      IN:
           ---                                      ---
              STO-SS =          39.8684                STO-SS =       1.4192E-02     STORAGE         
              STO-SY =       25716.0907                STO-SY =           9.1764     STORAGE         
                 RCH =      134671.2768                   RCH =         214.5203     RCHA            
                 CHD =        1305.4009                   CHD =           0.0000     CHD             

            TOTAL IN =      161732.6369              TOTAL IN =         223.7108

          OUT:                                     OUT:
          ----                                     ----
              STO-SS =          35.2863                STO-SS =           0.0000     STORAGE         
              STO-SY =       22843.7270                STO-SY =           0.0000     STORAGE         
                 RCH =           0.0000                   RCH =           0.0000     RCHA            
                 CHD =      138853.2224                   CHD =         223.7076     CHD             

           TOTAL OUT =      161732.2358             TOTAL OUT =         223.7076

            IN - OUT =           0.4011              IN - OUT =       3.1767E-03

 PERCENT DISCREPANCY =           0.00     PERCENT DISCREPANCY =           0.00




         TIME SUMMARY AT END OF TIME STEP   10 IN STRESS PERIOD   27
                    SECONDS     MINUTES      HOURS       DAYS        YEARS
                    -----------------------------------------------------------
   TIME STEP LENGTH 2.59200E+05  4320.0      72.000      3.0000     8.21355E-03
 STRESS PERIOD TIME 2.59200E+06  43200.      720.00      30.000     8.21355E-02
         TOTAL TIME 6.74784E+07 1.12464E+06  18744.      781.00      2.1383    

 OUTPUT CONTROL FOR STRESS PERIOD 28 IS REPEATED USING SETTINGS FROM A PREVIOUS STRESS PERIOD.


 STRESS PERIOD 28 IS TRANSIENT


                 RECHARGE =  0.1643840E-02
 UBDSV1 SAVING           STO-SS ON UNIT   1018 AT TIME STEP      1, STRESS PERIOD     28
 UBDSV1 SAVING           STO-SY ON UNIT   1018 AT TIME STEP      1, STRESS PERIOD     28
 UBDSV1 SAVING     FLOW-JA-FACE ON UNIT   1018 AT TIME STEP      1, STRESS PERIOD     28
 UBDSV06 SAVING              RCH IN MODEL TEST_TRANS       PACKAGE TEST_TRANS      CONNECTED TO MODEL TEST_TRANS       PACKAGE RCHA             ON UNIT   1018 AT TIME STEP      1, STRESS PERIOD     28
 UBDSV06 SAVING              CHD IN MODEL TEST_TRANS       PACKAGE TEST_TRANS      CONNECTED TO MODEL TEST_TRANS       PACKAGE CHD              ON UNIT   1018 AT TIME STEP      1, STRESS PERIOD     28
1
  HEAD IN LAYER   1 AT END OF TIME STEP   1 IN STRESS PERIOD   28
  ---------------------------------------------------------------------------

                1               2               3               4               5               6               7               8               9              10
               11              12              13              14              15              16              17              18              19              20
               21              22              23              24              25              26              27              28              29              30
 ................................................................................................................................................................
   1      28.1552         28.1496         28.1383         28.1213         28.0985         28.0700         28.0354         27.9948         27.9479         27.8946    
          27.8347         27.7678         27.6936         27.6119         27.5221         27.4237         27.3163         27.1990         27.0710         26.9312    
          26.7785         26.6112         26.4274         26.2243         25.9986         25.7456         25.4585         25.1275         24.7380         24.2710    
   2      28.1552         28.1496         28.1383         28.1213         28.0985         28.0700         28.0354         27.9948         27.9479         27.8946    
          27.8347         27.7678         27.6936         27.6119         27.5221         27.4237         27.3163         27.1990         27.0710         26.9313    
          26.7785         26.6112         26.4274         26.2243         25.9986         25.7456         25.4585         25.1276         24.7380         24.2710    
   3      28.1552         28.1496         28.1383         28.1213         28.0985         28.0700         28.0354         27.9948         27.9479         27.8946    
          27.8347         27.7678         27.6936         27.6119         27.5221         27.4237         27.3163         27.1990         27.0710         26.9313    
          26.7785         26.6112         26.4274         26.2243         25.9986         25.7456         25.4585         25.1276         24.7380         24.2710    
   4      28.1552         28.1496         28.1383         28.1213         28.0985         28.0700         28.0354         27.9948         27.9479         27.8946    
          27.8347         27.7678         27.6936         27.6119         27.5221         27.4237         27.3163         27.1990         27.0710         26.9313    
          26.7785         26.6112         26.4274         26.2243         25.9986         25.7456         25.4585         25.1276         24.7380         24.2710    
   5      28.1552         28.1496         28.1383         28.1213         28.0985         28.0700         28.0354         27.9948         27.9479         27.8946    
          27.8347         27.7678         27.6936         27.6119         27.5221         27.4237         27.3163         27.1990         27.0710         26.9312    
          26.7785         26.6112         26.4274         26.2243         25.9986         25.7456         25.4585         25.1276         24.7380         24.2710    
   6      28.1552         28.1496         28.1383         28.1213         28.0985         28.0700         28.0354         27.9948         27.9479         27.8946    
          27.8347         27.7678         27.6936         27.6119         27.5221         27.4237         27.3163         27.1990         27.0710         26.9312    
          26.7785         26.6112         26.4274         26.2243         25.9986         25.7456         25.4585         25.1276         24.7380         24.2710    
   7      28.1552         28.1496         28.1383         28.1213         28.0985         28.0700         28.0354         27.9948         27.9479         27.8946    
          27.8347         27.7678         27.6936         27.6119         27.5221         27.4237         27.3163         27.1990         27.0710         26.9312    
          26.7785         26.6112         26.4274         26.2243         25.9986         25.7456         25.4585         25.1276         24.7380         24.2710    
   8      28.1552         28.1496         28.1383         28.1213         28.0985         28.0700         28.0354         27.9948         27.9479         27.8946    
          27.8347         27.7678         27.6936         27.6119         27.5221         27.4237         27.3163         27.1990         27.0710         26.9312    
          26.7785         26.6112         26.4274         26.2243         25.9986         25.7456         25.4585         25.1276         24.7380         24.2710    
   9      28.1552         28.1496         28.1383         28.1213         28.0985         28.0700         28.0354         27.9948         27.9479         27.8946    
          27.8347         27.7678         27.6936         27.6119         27.5221         27.4237         27.3163         27.1990         27.0710         26.9312    
          26.7785         26.6112         26.4274         26.2243         25.9986         25.7456         25.4585         25.1276         24.7380         24.2710    
  10      28.1552         28.1496         28.1383         28.1213         28.0985         28.0700         28.0354         27.9948         27.9479         27.8946    
          27.8347         27.7678         27.6936         27.6119         27.5221         27.4237         27.3163         27.1990         27.0710         26.9312    
          26.7785         26.6112         26.4274         26.2243         25.9986         25.7456         25.4585         25.1276         24.7380         24.2710    
  11      28.1552         28.1496         28.1383         28.1213         28.0985         28.0700         28.0354         27.9948         27.9479         27.8946    
          27.8347         27.7678         27.6936         27.6119         27.5221         27.4237         27.3163         27.1990         27.0710         26.9312    
          26.7785         26.6112         26.4274         26.2243         25.9986         25.7456         25.4585         25.1276         24.7380         24.2710    
  12      28.1552         28.1496         28.1383         28.1213         28.0985         28.0700         28.0354         27.9948         27.9479         27.8946    
          27.8347         27.7678         27.6936         27.6119         27.5221         27.4237         27.3163         27.1990         27.0710         26.9312    
          26.7785         26.6112         26.4274         26.2243         25.9986         25.7456         25.4585         25.1276         24.7380         24.2710    
  13      28.1552         28.1496         28.1383         28.1213         28.0985         28.0700         28.0354         27.9948         27.9479         27.8946    
          27.8347         27.7678         27.6936         27.6119         27.5221         27.4237         27.3163         27.1990         27.0710         26.9312    
          26.7785         26.6112         26.4274         26.2243         25.9986         25.7456         25.4585         25.1276         24.7380         24.2710    
  14      28.1552         28.1496         28.1383         28.1213         28.0985         28.0700         28.0354         27.9948         27.9479         27.8946    
          27.8347         27.7678         27.6936         27.6119         27.5221         27.4237         27.3163         27.1990         27.0710         26.9312    
          26.7785         26.6112         26.4274         26.2243         25.9986         25.7456         25.4585         25.1276         24.7380         24.2710    
  15      28.1552         28.1496         28.1383         28.1213         28.0985         28.0700         28.0354         27.9948         27.9479         27.8946    
          27.8347         27.7678         27.6936         27.6119         27.5221         27.4237         27.3163         27.1990         27.0710         26.9312    
          26.7785         26.6112         26.4274         26.2243         25.9986         25.7456         25.4585         25.1276         24.7380         24.2710    
  16      28.1552         28.1496         28.1383         28.1213         28.0985         28.0700         28.0354         27.9948         27.9479         27.8946    
          27.8347         27.7678         27.6936         27.6119         27.5221         27.4237         27.3163         27.1990         27.0710         26.9312    
          26.7785         26.6112         26.4274         26.2243         25.9986         25.7456         25.4585         25.1276         24.7380         24.2710    
  17      28.1552         28.1496         28.1383         28.1213         28.0985         28.0700         28.0354         27.9948         27.9479         27.8946    
          27.8347         27.7678         27.6936         27.6119         27.5221         27.4237         27.3163         27.1990         27.0710         26.9312    
          26.7785         26.6112         26.4274         26.2243         25.9986         25.7456         25.4585         25.1276         24.7380         24.2710    
  18      28.1552         28.1496         28.1383         28.1213         28.0985         28.0700         28.0354         27.9948         27.9479         27.8946    
          27.8347         27.7678         27.6936         27.6119         27.5221         27.4237         27.3163         27.1990         27.0710         26.9312    
          26.7785         26.6112         26.4274         26.2243         25.9986         25.7456         25.4585         25.1276         24.7380         24.2710    
  19      28.1552         28.1496         28.1383         28.1213         28.0985         28.0700         28.0354         27.9948         27.9479         27.8946    
          27.8347         27.7678         27.6936         27.6119         27.5221         27.4237         27.3163         27.1990         27.0710         26.9312    
          26.7785         26.6112         26.4274         26.2243         25.9986         25.7456         25.4585         25.1276         24.7380         24.2710    
  20      28.1552         28.1496         28.1383         28.1213         28.0985         28.0700         28.0354         27.9948         27.9479         27.8946    
          27.8347         27.7678         27.6936         27.6119         27.5221         27.4237         27.3163         27.1990         27.0710         26.9312    
          26.7785         26.6112         26.4274         26.2243         25.9986         25.7456         25.4585         25.1276         24.7380         24.2710    
  21      28.1552         28.1496         28.1383         28.1213         28.0985         28.0700         28.0354         27.9948         27.9479         27.8946    
          27.8347         27.7678         27.6936         27.6119         27.5221         27.4237         27.3163         27.1990         27.0710         26.9312    
          26.7785         26.6112         26.4274         26.2243         25.9986         25.7456         25.4585         25.1276         24.7380         24.2710    
  22      28.1552         28.1496         28.1383         28.1213         28.0985         28.0700         28.0354         27.9948         27.9479         27.8946    
          27.8347         27.7678         27.6936         27.6119         27.5221         27.4237         27.3163         27.1990         27.0710         26.9312    
          26.7785         26.6112         26.4274         26.2243         25.9986         25.7456         25.4585         25.1276         24.7380         24.2710    
  23      28.1552         28.1496         28.1383         28.1213         28.0985         28.0700         28.0354         27.9948         27.9479         27.8946    
          27.8347         27.7678         27.6936         27.6119         27.5221         27.4237         27.3163         27.1990         27.0710         26.9312    
          26.7785         26.6112         26.4274         26.2243         25.9986         25.7456         25.4585         25.1276         24.7380         24.2710    
  24      28.1552         28.1496         28.1383         28.1213         28.0985         28.0700         28.0354         27.9948         27.9479         27.8946    
          27.8347         27.7678         27.6936         27.6119         27.5221         27.4237         27.3163         27.1990         27.0710         26.9312    
          26.7785         26.6112         26.4274         26.2243         25.9986         25.7456         25.4585         25.1276         24.7380         24.2710    
  25      28.1552         28.1496         28.1383         28.1213         28.0985         28.0700         28.0354         27.9948         27.9479         27.8946    
          27.8347         27.7678         27.6936         27.6119         27.5221         27.4237         27.3163         27.1990         27.0710         26.9312    
          26.7785         26.6112         26.4274         26.2243         25.9986         25.7456         25.4585         25.1276         24.7380         24.2710    
  26      28.1552         28.1496         28.1383         28.1213         28.0985         28.0700         28.0354         27.9948         27.9479         27.8946    
          27.8347         27.7678         27.6936         27.6119         27.5221         27.4237         27.3163         27.1990         27.0710         26.9312    
          26.7785         26.6112         26.4274         26.2243         25.9986         25.7456         25.4585         25.1276         24.7380         24.2710    
  27      28.1552         28.1496         28.1383         28.1213         28.0985         28.0700         28.0354         27.9948         27.9479         27.8946    
          27.8347         27.7678         27.6936         27.6119         27.5221         27.4237         27.3163         27.1990         27.0710         26.9312    
          26.7785         26.6112         26.4274         26.2243         25.9986         25.7456         25.4585         25.1276         24.7380         24.2710    
  28      28.1552         28.1496         28.1383         28.1213         28.0985         28.0700         28.0354         27.9948         27.9479         27.8946    
          27.8347         27.7678         27.6936         27.6119         27.5221         27.4237         27.3163         27.1990         27.0710         26.9312    
          26.7785         26.6112         26.4274         26.2243         25.9986         25.7456         25.4585         25.1276         24.7380         24.2710    
  29      28.1552         28.1496         28.1383         28.1213         28.0985         28.0700         28.0354         27.9948         27.9479         27.8946    
          27.8347         27.7678         27.6936         27.6119         27.5221         27.4237         27.3163         27.1990         27.0710         26.9312    
          26.7785         26.6112         26.4274         26.2243         25.9986         25.7456         25.4585         25.1276         24.7380         24.2710    
  30      28.1552         28.1496         28.1383         28.1213         28.0985         28.0700         28.0354         27.9948         27.9479         27.8946    
          27.8347         27.7678         27.6936         27.6119         27.5221         27.4237         27.3163         27.1990         27.0710         26.9312    
          26.7785         26.6112         26.4274         26.2243         25.9986         25.7456         25.4585         25.1276         24.7380         24.2710    

 HEAD WILL BE SAVED ON UNIT 1019 AT END OF TIME STEP    1, STRESS PERIOD   28



         TIME SUMMARY AT END OF TIME STEP    1 IN STRESS PERIOD   28
                    SECONDS     MINUTES      HOURS       DAYS        YEARS
                    -----------------------------------------------------------
   TIME STEP LENGTH 2.59200E+05  4320.0      72.000      3.0000     8.21355E-03
 STRESS PERIOD TIME 2.59200E+05  4320.0      72.000      3.0000     8.21355E-03
         TOTAL TIME 6.77376E+07 1.12896E+06  18816.      784.00      2.1465    
 UBDSV1 SAVING           STO-SS ON UNIT   1018 AT TIME STEP      2, STRESS PERIOD     28
 UBDSV1 SAVING           STO-SY ON UNIT   1018 AT TIME STEP      2, STRESS PERIOD     28
 UBDSV1 SAVING     FLOW-JA-FACE ON UNIT   1018 AT TIME STEP      2, STRESS PERIOD     28
 UBDSV06 SAVING              RCH IN MODEL TEST_TRANS       PACKAGE TEST_TRANS      CONNECTED TO MODEL TEST_TRANS       PACKAGE RCHA             ON UNIT   1018 AT TIME STEP      2, STRESS PERIOD     28
 UBDSV06 SAVING              CHD IN MODEL TEST_TRANS       PACKAGE TEST_TRANS      CONNECTED TO MODEL TEST_TRANS       PACKAGE CHD              ON UNIT   1018 AT TIME STEP      2, STRESS PERIOD     28

 HEAD WILL BE SAVED ON UNIT 1019 AT END OF TIME STEP    2, STRESS PERIOD   28
 UBDSV1 SAVING           STO-SS ON UNIT   1018 AT TIME STEP      3, STRESS PERIOD     28
 UBDSV1 SAVING           STO-SY ON UNIT   1018 AT TIME STEP      3, STRESS PERIOD     28
 UBDSV1 SAVING     FLOW-JA-FACE ON UNIT   1018 AT TIME STEP      3, STRESS PERIOD     28
 UBDSV06 SAVING              RCH IN MODEL TEST_TRANS       PACKAGE TEST_TRANS      CONNECTED TO MODEL TEST_TRANS       PACKAGE RCHA             ON UNIT   1018 AT TIME STEP      3, STRESS PERIOD     28
 UBDSV06 SAVING              CHD IN MODEL TEST_TRANS       PACKAGE TEST_TRANS      CONNECTED TO MODEL TEST_TRANS       PACKAGE CHD              ON UNIT   1018 AT TIME STEP      3, STRESS PERIOD     28

 HEAD WILL BE SAVED ON UNIT 1019 AT END OF TIME STEP    3, STRESS PERIOD   28
 UBDSV1 SAVING           STO-SS ON UNIT   1018 AT TIME STEP      4, STRESS PERIOD     28
 UBDSV1 SAVING           STO-SY ON UNIT   1018 AT TIME STEP      4, STRESS PERIOD     28
 UBDSV1 SAVING     FLOW-JA-FACE ON UNIT   1018 AT TIME STEP      4, STRESS PERIOD     28
 UBDSV06 SAVING              RCH IN MODEL TEST_TRANS       PACKAGE TEST_TRANS      CONNECTED TO MODEL TEST_TRANS       PACKAGE RCHA             ON UNIT   1018 AT TIME STEP      4, STRESS PERIOD     28
 UBDSV06 SAVING              CHD IN MODEL TEST_TRANS       PACKAGE TEST_TRANS      CONNECTED TO MODEL TEST_TRANS       PACKAGE CHD              ON UNIT   1018 AT TIME STEP      4, STRESS PERIOD     28

 HEAD WILL BE SAVED ON UNIT 1019 AT END OF TIME STEP    4, STRESS PERIOD   28
 UBDSV1 SAVING           STO-SS ON UNIT   1018 AT TIME STEP      5, STRESS PERIOD     28
 UBDSV1 SAVING           STO-SY ON UNIT   1018 AT TIME STEP      5, STRESS PERIOD     28
 UBDSV1 SAVING     FLOW-JA-FACE ON UNIT   1018 AT TIME STEP      5, STRESS PERIOD     28
 UBDSV06 SAVING              RCH IN MODEL TEST_TRANS       PACKAGE TEST_TRANS      CONNECTED TO MODEL TEST_TRANS       PACKAGE RCHA             ON UNIT   1018 AT TIME STEP      5, STRESS PERIOD     28
 UBDSV06 SAVING              CHD IN MODEL TEST_TRANS       PACKAGE TEST_TRANS      CONNECTED TO MODEL TEST_TRANS       PACKAGE CHD              ON UNIT   1018 AT TIME STEP      5, STRESS PERIOD     28

 HEAD WILL BE SAVED ON UNIT 1019 AT END OF TIME STEP    5, STRESS PERIOD   28
 UBDSV1 SAVING           STO-SS ON UNIT   1018 AT TIME STEP      6, STRESS PERIOD     28
 UBDSV1 SAVING           STO-SY ON UNIT   1018 AT TIME STEP      6, STRESS PERIOD     28
 UBDSV1 SAVING     FLOW-JA-FACE ON UNIT   1018 AT TIME STEP      6, STRESS PERIOD     28
 UBDSV06 SAVING              RCH IN MODEL TEST_TRANS       PACKAGE TEST_TRANS      CONNECTED TO MODEL TEST_TRANS       PACKAGE RCHA             ON UNIT   1018 AT TIME STEP      6, STRESS PERIOD     28
 UBDSV06 SAVING              CHD IN MODEL TEST_TRANS       PACKAGE TEST_TRANS      CONNECTED TO MODEL TEST_TRANS       PACKAGE CHD              ON UNIT   1018 AT TIME STEP      6, STRESS PERIOD     28

 HEAD WILL BE SAVED ON UNIT 1019 AT END OF TIME STEP    6, STRESS PERIOD   28
 UBDSV1 SAVING           STO-SS ON UNIT   1018 AT TIME STEP      7, STRESS PERIOD     28
 UBDSV1 SAVING           STO-SY ON UNIT   1018 AT TIME STEP      7, STRESS PERIOD     28
 UBDSV1 SAVING     FLOW-JA-FACE ON UNIT   1018 AT TIME STEP      7, STRESS PERIOD     28
 UBDSV06 SAVING              RCH IN MODEL TEST_TRANS       PACKAGE TEST_TRANS      CONNECTED TO MODEL TEST_TRANS       PACKAGE RCHA             ON UNIT   1018 AT TIME STEP      7, STRESS PERIOD     28
 UBDSV06 SAVING              CHD IN MODEL TEST_TRANS       PACKAGE TEST_TRANS      CONNECTED TO MODEL TEST_TRANS       PACKAGE CHD              ON UNIT   1018 AT TIME STEP      7, STRESS PERIOD     28

 HEAD WILL BE SAVED ON UNIT 1019 AT END OF TIME STEP    7, STRESS PERIOD   28
 UBDSV1 SAVING           STO-SS ON UNIT   1018 AT TIME STEP      8, STRESS PERIOD     28
 UBDSV1 SAVING           STO-SY ON UNIT   1018 AT TIME STEP      8, STRESS PERIOD     28
 UBDSV1 SAVING     FLOW-JA-FACE ON UNIT   1018 AT TIME STEP      8, STRESS PERIOD     28
 UBDSV06 SAVING              RCH IN MODEL TEST_TRANS       PACKAGE TEST_TRANS      CONNECTED TO MODEL TEST_TRANS       PACKAGE RCHA             ON UNIT   1018 AT TIME STEP      8, STRESS PERIOD     28
 UBDSV06 SAVING              CHD IN MODEL TEST_TRANS       PACKAGE TEST_TRANS      CONNECTED TO MODEL TEST_TRANS       PACKAGE CHD              ON UNIT   1018 AT TIME STEP      8, STRESS PERIOD     28

 HEAD WILL BE SAVED ON UNIT 1019 AT END OF TIME STEP    8, STRESS PERIOD   28
 UBDSV1 SAVING           STO-SS ON UNIT   1018 AT TIME STEP      9, STRESS PERIOD     28
 UBDSV1 SAVING           STO-SY ON UNIT   1018 AT TIME STEP      9, STRESS PERIOD     28
 UBDSV1 SAVING     FLOW-JA-FACE ON UNIT   1018 AT TIME STEP      9, STRESS PERIOD     28
 UBDSV06 SAVING              RCH IN MODEL TEST_TRANS       PACKAGE TEST_TRANS      CONNECTED TO MODEL TEST_TRANS       PACKAGE RCHA             ON UNIT   1018 AT TIME STEP      9, STRESS PERIOD     28
 UBDSV06 SAVING              CHD IN MODEL TEST_TRANS       PACKAGE TEST_TRANS      CONNECTED TO MODEL TEST_TRANS       PACKAGE CHD              ON UNIT   1018 AT TIME STEP      9, STRESS PERIOD     28

 HEAD WILL BE SAVED ON UNIT 1019 AT END OF TIME STEP    9, STRESS PERIOD   28
 UBDSV1 SAVING           STO-SS ON UNIT   1018 AT TIME STEP     10, STRESS PERIOD     28
 UBDSV1 SAVING           STO-SY ON UNIT   1018 AT TIME STEP     10, STRESS PERIOD     28
 UBDSV1 SAVING     FLOW-JA-FACE ON UNIT   1018 AT TIME STEP     10, STRESS PERIOD     28
 UBDSV06 SAVING              RCH IN MODEL TEST_TRANS       PACKAGE TEST_TRANS      CONNECTED TO MODEL TEST_TRANS       PACKAGE RCHA             ON UNIT   1018 AT TIME STEP     10, STRESS PERIOD     28
 UBDSV06 SAVING              CHD IN MODEL TEST_TRANS       PACKAGE TEST_TRANS      CONNECTED TO MODEL TEST_TRANS       PACKAGE CHD              ON UNIT   1018 AT TIME STEP     10, STRESS PERIOD     28
1
  HEAD IN LAYER   1 AT END OF TIME STEP  10 IN STRESS PERIOD   28
  ---------------------------------------------------------------------------

                1               2               3               4               5               6               7               8               9              10
               11              12              13              14              15              16              17              18              19              20
               21              22              23              24              25              26              27              28              29              30
 ................................................................................................................................................................
   1      28.0420         28.0364         28.0251         28.0082         27.9855         27.9570         27.9226         27.8823         27.8357         27.7829    
          27.7236         27.6576         27.5846         27.5043         27.4164         27.3205         27.2161         27.1026         26.9793         26.8454    
          26.6997         26.5411         26.3677         26.1774         25.9669         25.7319         25.4653         25.1555         24.7793         24.2710    
   2      28.0420         28.0364         28.0251         28.0082         27.9855         27.9570         27.9226         27.8823         27.8357         27.7829    
          27.7236         27.6576         27.5846         27.5043         27.4164         27.3205         27.2161         27.1026         26.9793         26.8454    
          26.6997         26.5411         26.3677         26.1774         25.9669         25.7319         25.4653         25.1556         24.7793         24.2710    
   3      28.0420         28.0364         28.0251         28.0082         27.9855         27.9570         27.9226         27.8823         27.8357         27.7829    
          27.7236         27.6576         27.5846         27.5043         27.4164         27.3205         27.2161         27.1026         26.9793         26.8454    
          26.6997         26.5411         26.3677         26.1774         25.9669         25.7319         25.4653         25.1556         24.7793         24.2710    
   4      28.0420         28.0364         28.0251         28.0082         27.9855         27.9570         27.9226         27.8823         27.8357         27.7829    
          27.7236         27.6576         27.5846         27.5043         27.4164         27.3205         27.2161         27.1026         26.9793         26.8454    
          26.6997         26.5411         26.3677         26.1774         25.9669         25.7319         25.4653         25.1556         24.7793         24.2710    
   5      28.0420         28.0364         28.0251         28.0082         27.9855         27.9570         27.9226         27.8823         27.8357         27.7829    
          27.7236         27.6576         27.5846         27.5043         27.4164         27.3205         27.2161         27.1026         26.9793         26.8454    
          26.6997         26.5411         26.3677         26.1774         25.9669         25.7319         25.4653         25.1556         24.7793         24.2710    
   6      28.0420         28.0364         28.0251         28.0082         27.9855         27.9570         27.9226         27.8823         27.8357         27.7829    
          27.7236         27.6576         27.5846         27.5043         27.4164         27.3205         27.2161         27.1026         26.9793         26.8454    
          26.6997         26.5411         26.3677         26.1774         25.9669         25.7319         25.4653         25.1556         24.7793         24.2710    
   7      28.0420         28.0364         28.0251         28.0082         27.9855         27.9570         27.9226         27.8823         27.8357         27.7829    
          27.7236         27.6576         27.5846         27.5043         27.4164         27.3205         27.2161         27.1026         26.9793         26.8454    
          26.6997         26.5411         26.3677         26.1774         25.9669         25.7319         25.4653         25.1556         24.7793         24.2710    
   8      28.0420         28.0364         28.0251         28.0082         27.9855         27.9570         27.9226         27.8823         27.8357         27.7829    
          27.7236         27.6576         27.5846         27.5043         27.4164         27.3205         27.2161         27.1026         26.9793         26.8454    
          26.6997         26.5411         26.3677         26.1774         25.9669         25.7319         25.4653         25.1556         24.7793         24.2710    
   9      28.0420         28.0364         28.0251         28.0082         27.9855         27.9570         27.9226         27.8823         27.8357         27.7829    
          27.7236         27.6576         27.5846         27.5043         27.4164         27.3205         27.2161         27.1026         26.9793         26.8454    
          26.6997         26.5411         26.3677         26.1774         25.9669         25.7319         25.4653         25.1556         24.7793         24.2710    
  10      28.0420         28.0364         28.0251         28.0082         27.9855         27.9570         27.9226         27.8823         27.8357         27.7829    
          27.7236         27.6576         27.5846         27.5043         27.4164         27.3205         27.2161         27.1026         26.9793         26.8454    
          26.6997         26.5411         26.3677         26.1774         25.9669         25.7319         25.4653         25.1556         24.7793         24.2710    
  11      28.0420         28.0364         28.0251         28.0082         27.9855         27.9570         27.9226         27.8823         27.8357         27.7829    
          27.7236         27.6576         27.5846         27.5043         27.4164         27.3205         27.2161         27.1026         26.9793         26.8454    
          26.6997         26.5411         26.3677         26.1774         25.9669         25.7319         25.4653         25.1556         24.7793         24.2710    
  12      28.0420         28.0364         28.0251         28.0082         27.9855         27.9570         27.9226         27.8823         27.8357         27.7829    
          27.7236         27.6576         27.5846         27.5043         27.4164         27.3205         27.2161         27.1026         26.9793         26.8454    
          26.6997         26.5411         26.3677         26.1774         25.9669         25.7319         25.4653         25.1556         24.7793         24.2710    
  13      28.0420         28.0364         28.0251         28.0082         27.9855         27.9570         27.9226         27.8823         27.8357         27.7829    
          27.7236         27.6576         27.5846         27.5043         27.4164         27.3205         27.2161         27.1026         26.9793         26.8454    
          26.6997         26.5411         26.3677         26.1774         25.9669         25.7319         25.4653         25.1556         24.7793         24.2710    
  14      28.0420         28.0364         28.0251         28.0082         27.9855         27.9570         27.9226         27.8823         27.8357         27.7829    
          27.7236         27.6576         27.5846         27.5043         27.4164         27.3205         27.2161         27.1026         26.9793         26.8454    
          26.6997         26.5411         26.3677         26.1774         25.9669         25.7319         25.4653         25.1556         24.7793         24.2710    
  15      28.0420         28.0364         28.0251         28.0082         27.9855         27.9570         27.9226         27.8823         27.8357         27.7829    
          27.7236         27.6576         27.5846         27.5043         27.4164         27.3205         27.2161         27.1026         26.9793         26.8454    
          26.6997         26.5411         26.3677         26.1774         25.9669         25.7319         25.4653         25.1556         24.7793         24.2710    
  16      28.0420         28.0364         28.0251         28.0082         27.9855         27.9570         27.9226         27.8823         27.8357         27.7829    
          27.7236         27.6576         27.5846         27.5043         27.4164         27.3205         27.2161         27.1026         26.9793         26.8454    
          26.6997         26.5411         26.3677         26.1774         25.9669         25.7319         25.4653         25.1556         24.7793         24.2710    
  17      28.0420         28.0364         28.0251         28.0082         27.9855         27.9570         27.9226         27.8823         27.8357         27.7829    
          27.7236         27.6576         27.5846         27.5043         27.4164         27.3205         27.2161         27.1026         26.9793         26.8454    
          26.6997         26.5411         26.3677         26.1774         25.9669         25.7319         25.4653         25.1556         24.7793         24.2710    
  18      28.0420         28.0364         28.0251         28.0082         27.9855         27.9570         27.9226         27.8823         27.8357         27.7829    
          27.7236         27.6576         27.5846         27.5043         27.4164         27.3205         27.2161         27.1026         26.9793         26.8454    
          26.6997         26.5411         26.3677         26.1774         25.9669         25.7319         25.4653         25.1556         24.7793         24.2710    
  19      28.0420         28.0364         28.0251         28.0082         27.9855         27.9570         27.9226         27.8823         27.8357         27.7829    
          27.7236         27.6576         27.5846         27.5043         27.4164         27.3205         27.2161         27.1026         26.9793         26.8454    
          26.6997         26.5411         26.3677         26.1774         25.9669         25.7319         25.4653         25.1556         24.7793         24.2710    
  20      28.0420         28.0364         28.0251         28.0082         27.9855         27.9570         27.9226         27.8823         27.8357         27.7829    
          27.7236         27.6576         27.5846         27.5043         27.4164         27.3205         27.2161         27.1026         26.9793         26.8454    
          26.6997         26.5411         26.3677         26.1774         25.9669         25.7319         25.4653         25.1556         24.7793         24.2710    
  21      28.0420         28.0364         28.0251         28.0082         27.9855         27.9570         27.9226         27.8823         27.8357         27.7829    
          27.7236         27.6576         27.5846         27.5043         27.4164         27.3205         27.2161         27.1026         26.9793         26.8454    
          26.6997         26.5411         26.3677         26.1774         25.9669         25.7319         25.4653         25.1556         24.7793         24.2710    
  22      28.0420         28.0364         28.0251         28.0082         27.9855         27.9570         27.9226         27.8823         27.8357         27.7829    
          27.7236         27.6576         27.5846         27.5043         27.4164         27.3205         27.2161         27.1026         26.9793         26.8454    
          26.6997         26.5411         26.3677         26.1774         25.9669         25.7319         25.4653         25.1556         24.7793         24.2710    
  23      28.0420         28.0364         28.0251         28.0082         27.9855         27.9570         27.9226         27.8823         27.8357         27.7829    
          27.7236         27.6576         27.5846         27.5043         27.4164         27.3205         27.2161         27.1026         26.9793         26.8454    
          26.6997         26.5411         26.3677         26.1774         25.9669         25.7319         25.4653         25.1556         24.7793         24.2710    
  24      28.0420         28.0364         28.0251         28.0082         27.9855         27.9570         27.9226         27.8823         27.8357         27.7829    
          27.7236         27.6576         27.5846         27.5043         27.4164         27.3205         27.2161         27.1026         26.9793         26.8454    
          26.6997         26.5411         26.3677         26.1774         25.9669         25.7319         25.4653         25.1556         24.7793         24.2710    
  25      28.0420         28.0364         28.0251         28.0082         27.9855         27.9570         27.9226         27.8823         27.8357         27.7829    
          27.7236         27.6576         27.5846         27.5043         27.4164         27.3205         27.2161         27.1026         26.9793         26.8454    
          26.6997         26.5411         26.3677         26.1774         25.9669         25.7319         25.4653         25.1556         24.7793         24.2710    
  26      28.0420         28.0364         28.0251         28.0082         27.9855         27.9570         27.9226         27.8823         27.8357         27.7829    
          27.7236         27.6576         27.5846         27.5043         27.4164         27.3205         27.2161         27.1026         26.9793         26.8454    
          26.6997         26.5411         26.3677         26.1774         25.9669         25.7319         25.4653         25.1556         24.7793         24.2710    
  27      28.0420         28.0364         28.0251         28.0082         27.9855         27.9570         27.9226         27.8823         27.8357         27.7829    
          27.7236         27.6576         27.5846         27.5043         27.4164         27.3205         27.2161         27.1026         26.9793         26.8454    
          26.6997         26.5411         26.3677         26.1774         25.9669         25.7319         25.4653         25.1556         24.7793         24.2710    
  28      28.0420         28.0364         28.0251         28.0082         27.9855         27.9570         27.9226         27.8823         27.8357         27.7829    
          27.7236         27.6576         27.5846         27.5043         27.4164         27.3205         27.2161         27.1026         26.9793         26.8454    
          26.6997         26.5411         26.3677         26.1774         25.9669         25.7319         25.4653         25.1556         24.7793         24.2710    
  29      28.0420         28.0364         28.0251         28.0082         27.9855         27.9570         27.9226         27.8823         27.8357         27.7829    
          27.7236         27.6576         27.5846         27.5043         27.4164         27.3205         27.2161         27.1026         26.9793         26.8454    
          26.6997         26.5411         26.3677         26.1774         25.9669         25.7319         25.4653         25.1556         24.7793         24.2710    
  30      28.0420         28.0364         28.0251         28.0082         27.9855         27.9570         27.9226         27.8823         27.8357         27.7829    
          27.7236         27.6576         27.5846         27.5043         27.4164         27.3205         27.2161         27.1026         26.9793         26.8454    
          26.6997         26.5411         26.3677         26.1774         25.9669         25.7319         25.4653         25.1556         24.7793         24.2710    

 HEAD WILL BE SAVED ON UNIT 1019 AT END OF TIME STEP   10, STRESS PERIOD   28


  VOLUME BUDGET FOR ENTIRE MODEL AT END OF TIME STEP   10, STRESS PERIOD  28
  ---------------------------------------------------------------------------------------------------

     CUMULATIVE VOLUME      L**3       RATES FOR THIS TIME STEP      L**3/T          PACKAGE NAME    
     ------------------                 ------------------------                     ----------------

           IN:                                      IN:
           ---                                      ---
              STO-SS =          42.5665                STO-SS =       8.3271E-02     STORAGE         
              STO-SY =       27398.9124                STO-SY =          52.2748     STORAGE         
                 RCH =      138961.6992                   RCH =         143.0141     RCHA            
                 CHD =        1305.4009                   CHD =           0.0000     CHD             

            TOTAL IN =      167708.5790              TOTAL IN =         195.3721

          OUT:                                     OUT:
          ----                                     ----
              STO-SS =          35.4945                STO-SS =           0.0000     STORAGE         
              STO-SY =       22998.5947                STO-SY =           0.0000     STORAGE         
                 RCH =           0.0000                   RCH =           0.0000     RCHA            
                 CHD =      144673.9439                   CHD =         195.3673     CHD             

           TOTAL OUT =      167708.0331             TOTAL OUT =         195.3673

            IN - OUT =           0.5459              IN - OUT =       4.8153E-03

 PERCENT DISCREPANCY =           0.00     PERCENT DISCREPANCY =           0.00




         TIME SUMMARY AT END OF TIME STEP   10 IN STRESS PERIOD   28
                    SECONDS     MINUTES      HOURS       DAYS        YEARS
                    -----------------------------------------------------------
   TIME STEP LENGTH 2.59200E+05  4320.0      72.000      3.0000     8.21355E-03
 STRESS PERIOD TIME 2.59200E+06  43200.      720.00      30.000     8.21355E-02
         TOTAL TIME 7.00704E+07 1.16784E+06  19464.      811.00      2.2204    

 OUTPUT CONTROL FOR STRESS PERIOD 29 IS REPEATED USING SETTINGS FROM A PREVIOUS STRESS PERIOD.


 STRESS PERIOD 29 IS TRANSIENT


                 RECHARGE =  0.1232880E-02
 UBDSV1 SAVING           STO-SS ON UNIT   1018 AT TIME STEP      1, STRESS PERIOD     29
 UBDSV1 SAVING           STO-SY ON UNIT   1018 AT TIME STEP      1, STRESS PERIOD     29
 UBDSV1 SAVING     FLOW-JA-FACE ON UNIT   1018 AT TIME STEP      1, STRESS PERIOD     29
 UBDSV06 SAVING              RCH IN MODEL TEST_TRANS       PACKAGE TEST_TRANS      CONNECTED TO MODEL TEST_TRANS       PACKAGE RCHA             ON UNIT   1018 AT TIME STEP      1, STRESS PERIOD     29
 UBDSV06 SAVING              CHD IN MODEL TEST_TRANS       PACKAGE TEST_TRANS      CONNECTED TO MODEL TEST_TRANS       PACKAGE CHD              ON UNIT   1018 AT TIME STEP      1, STRESS PERIOD     29
1
  HEAD IN LAYER   1 AT END OF TIME STEP   1 IN STRESS PERIOD   29
  ---------------------------------------------------------------------------

                1               2               3               4               5               6               7               8               9              10
               11              12              13              14              15              16              17              18              19              20
               21              22              23              24              25              26              27              28              29              30
 ................................................................................................................................................................
   1      28.0240         28.0184         28.0072         27.9902         27.9676         27.9392         27.9049         27.8647         27.8183         27.7656    
          27.7065         27.6407         27.5679         27.4880         27.4005         27.3050         27.2011         27.0883         26.9658         26.8330    
          26.6889         26.5326         26.3628         26.1783         25.9777         25.7603         25.5273         25.2851         25.0562         24.9067    
   2      28.0240         28.0184         28.0072         27.9902         27.9676         27.9392         27.9049         27.8647         27.8183         27.7656    
          27.7065         27.6407         27.5679         27.4880         27.4005         27.3050         27.2011         27.0883         26.9658         26.8330    
          26.6889         26.5326         26.3628         26.1783         25.9777         25.7604         25.5273         25.2851         25.0562         24.9067    
   3      28.0240         28.0184         28.0072         27.9902         27.9676         27.9392         27.9049         27.8647         27.8183         27.7656    
          27.7065         27.6407         27.5679         27.4880         27.4005         27.3050         27.2011         27.0883         26.9658         26.8330    
          26.6889         26.5326         26.3628         26.1783         25.9777         25.7604         25.5273         25.2851         25.0562         24.9067    
   4      28.0240         28.0184         28.0072         27.9902         27.9676         27.9392         27.9049         27.8647         27.8183         27.7656    
          27.7065         27.6407         27.5679         27.4880         27.4005         27.3050         27.2011         27.0883         26.9658         26.8330    
          26.6889         26.5326         26.3628         26.1783         25.9777         25.7604         25.5273         25.2851         25.0562         24.9067    
   5      28.0240         28.0184         28.0072         27.9902         27.9676         27.9392         27.9049         27.8647         27.8183         27.7656    
          27.7065         27.6407         27.5679         27.4880         27.4005         27.3050         27.2011         27.0883         26.9658         26.8330    
          26.6889         26.5326         26.3628         26.1783         25.9777         25.7604         25.5273         25.2851         25.0562         24.9067    
   6      28.0240         28.0184         28.0072         27.9902         27.9676         27.9392         27.9049         27.8647         27.8183         27.7656    
          27.7065         27.6407         27.5679         27.4880         27.4005         27.3050         27.2011         27.0883         26.9658         26.8330    
          26.6889         26.5326         26.3628         26.1783         25.9777         25.7604         25.5273         25.2851         25.0562         24.9067    
   7      28.0240         28.0184         28.0072         27.9902         27.9676         27.9392         27.9049         27.8647         27.8183         27.7656    
          27.7065         27.6407         27.5679         27.4880         27.4005         27.3050         27.2011         27.0883         26.9658         26.8330    
          26.6889         26.5326         26.3628         26.1783         25.9777         25.7604         25.5273         25.2851         25.0562         24.9067    
   8      28.0240         28.0184         28.0072         27.9902         27.9676         27.9392         27.9049         27.8647         27.8183         27.7656    
          27.7065         27.6407         27.5679         27.4880         27.4005         27.3050         27.2011         27.0883         26.9658         26.8330    
          26.6889         26.5326         26.3628         26.1783         25.9777         25.7604         25.5273         25.2851         25.0562         24.9067    
   9      28.0240         28.0184         28.0072         27.9902         27.9676         27.9392         27.9049         27.8647         27.8183         27.7656    
          27.7065         27.6407         27.5679         27.4880         27.4005         27.3050         27.2011         27.0883         26.9658         26.8330    
          26.6889         26.5326         26.3628         26.1783         25.9777         25.7604         25.5273         25.2851         25.0562         24.9067    
  10      28.0240         28.0184         28.0072         27.9902         27.9676         27.9392         27.9049         27.8647         27.8183         27.7656    
          27.7065         27.6407         27.5679         27.4880         27.4005         27.3050         27.2011         27.0883         26.9658         26.8330    
          26.6889         26.5326         26.3628         26.1783         25.9777         25.7604         25.5273         25.2851         25.0562         24.9067    
  11      28.0240         28.0184         28.0072         27.9902         27.9676         27.9392         27.9049         27.8647         27.8183         27.7656    
          27.7065         27.6407         27.5679         27.4880         27.4005         27.3050         27.2011         27.0883         26.9658         26.8330    
          26.6889         26.5326         26.3628         26.1783         25.9777         25.7604         25.5273         25.2851         25.0562         24.9067    
  12      28.0240         28.0184         28.0072         27.9902         27.9676         27.9392         27.9049         27.8647         27.8183         27.7656    
          27.7065         27.6407         27.5679         27.4880         27.4005         27.3050         27.2011         27.0883         26.9658         26.8330    
          26.6889         26.5326         26.3628         26.1783         25.9777         25.7604         25.5273         25.2851         25.0562         24.9067    
  13      28.0240         28.0184         28.0072         27.9902         27.9676         27.9392         27.9049         27.8647         27.8183         27.7656    
          27.7065         27.6407         27.5679         27.4880         27.4005         27.3050         27.2011         27.0883         26.9658         26.8330    
          26.6889         26.5326         26.3628         26.1783         25.9777         25.7604         25.5273         25.2851         25.0562         24.9067    
  14      28.0240         28.0184         28.0072         27.9902         27.9676         27.9392         27.9049         27.8647         27.8183         27.7656    
          27.7065         27.6407         27.5679         27.4880         27.4005         27.3050         27.2011         27.0883         26.9658         26.8330    
          26.6889         26.5326         26.3628         26.1783         25.9777         25.7604         25.5273         25.2851         25.0562         24.9067    
  15      28.0240         28.0184         28.0072         27.9902         27.9676         27.9392         27.9049         27.8647         27.8183         27.7656    
          27.7065         27.6407         27.5679         27.4880         27.4005         27.3050         27.2011         27.0883         26.9658         26.8330    
          26.6889         26.5326         26.3628         26.1783         25.9777         25.7604         25.5273         25.2851         25.0562         24.9067    
  16      28.0240         28.0184         28.0072         27.9902         27.9676         27.9392         27.9049         27.8647         27.8183         27.7656    
          27.7065         27.6407         27.5679         27.4880         27.4005         27.3050         27.2011         27.0883         26.9658         26.8330    
          26.6889         26.5326         26.3628         26.1783         25.9777         25.7604         25.5273         25.2851         25.0562         24.9067    
  17      28.0240         28.0184         28.0072         27.9902         27.9676         27.9392         27.9049         27.8647         27.8183         27.7656    
          27.7065         27.6407         27.5679         27.4880         27.4005         27.3050         27.2011         27.0883         26.9658         26.8330    
          26.6889         26.5326         26.3628         26.1783         25.9777         25.7604         25.5273         25.2851         25.0562         24.9067    
  18      28.0240         28.0184         28.0072         27.9902         27.9676         27.9392         27.9049         27.8647         27.8183         27.7656    
          27.7065         27.6407         27.5679         27.4880         27.4005         27.3050         27.2011         27.0883         26.9658         26.8330    
          26.6889         26.5326         26.3628         26.1783         25.9777         25.7604         25.5273         25.2851         25.0562         24.9067    
  19      28.0240         28.0184         28.0072         27.9902         27.9676         27.9392         27.9049         27.8647         27.8183         27.7656    
          27.7065         27.6407         27.5679         27.4880         27.4005         27.3050         27.2011         27.0883         26.9658         26.8330    
          26.6889         26.5326         26.3628         26.1783         25.9777         25.7604         25.5273         25.2851         25.0562         24.9067    
  20      28.0240         28.0184         28.0072         27.9902         27.9676         27.9392         27.9049         27.8647         27.8183         27.7656    
          27.7065         27.6407         27.5679         27.4880         27.4005         27.3050         27.2011         27.0883         26.9658         26.8330    
          26.6889         26.5326         26.3628         26.1783         25.9777         25.7604         25.5273         25.2851         25.0562         24.9067    
  21      28.0240         28.0184         28.0072         27.9902         27.9676         27.9392         27.9049         27.8647         27.8183         27.7656    
          27.7065         27.6407         27.5679         27.4880         27.4005         27.3050         27.2011         27.0883         26.9658         26.8330    
          26.6889         26.5326         26.3628         26.1783         25.9777         25.7604         25.5273         25.2851         25.0562         24.9067    
  22      28.0240         28.0184         28.0072         27.9902         27.9676         27.9392         27.9049         27.8647         27.8183         27.7656    
          27.7065         27.6407         27.5679         27.4880         27.4005         27.3050         27.2011         27.0883         26.9658         26.8330    
          26.6889         26.5326         26.3628         26.1783         25.9777         25.7604         25.5273         25.2851         25.0562         24.9067    
  23      28.0240         28.0184         28.0072         27.9902         27.9676         27.9392         27.9049         27.8647         27.8183         27.7656    
          27.7065         27.6407         27.5679         27.4880         27.4005         27.3050         27.2011         27.0883         26.9658         26.8330    
          26.6889         26.5326         26.3628         26.1783         25.9777         25.7604         25.5273         25.2851         25.0562         24.9067    
  24      28.0240         28.0184         28.0072         27.9902         27.9676         27.9392         27.9049         27.8647         27.8183         27.7656    
          27.7065         27.6407         27.5679         27.4880         27.4005         27.3050         27.2011         27.0883         26.9658         26.8330    
          26.6889         26.5326         26.3628         26.1783         25.9777         25.7604         25.5273         25.2851         25.0562         24.9067    
  25      28.0240         28.0184         28.0072         27.9902         27.9676         27.9392         27.9049         27.8647         27.8183         27.7656    
          27.7065         27.6407         27.5679         27.4880         27.4005         27.3050         27.2011         27.0883         26.9658         26.8330    
          26.6889         26.5326         26.3628         26.1783         25.9777         25.7604         25.5273         25.2851         25.0562         24.9067    
  26      28.0240         28.0184         28.0072         27.9902         27.9676         27.9392         27.9049         27.8647         27.8183         27.7656    
          27.7065         27.6407         27.5679         27.4880         27.4005         27.3050         27.2011         27.0883         26.9658         26.8330    
          26.6889         26.5326         26.3628         26.1783         25.9777         25.7604         25.5273         25.2851         25.0562         24.9067    
  27      28.0240         28.0184         28.0072         27.9902         27.9676         27.9392         27.9049         27.8647         27.8183         27.7656    
          27.7065         27.6407         27.5679         27.4880         27.4005         27.3050         27.2011         27.0883         26.9658         26.8330    
          26.6889         26.5326         26.3628         26.1783         25.9777         25.7604         25.5273         25.2851         25.0562         24.9067    
  28      28.0240         28.0184         28.0072         27.9902         27.9676         27.9392         27.9049         27.8647         27.8183         27.7656    
          27.7065         27.6407         27.5679         27.4880         27.4005         27.3050         27.2011         27.0883         26.9658         26.8330    
          26.6889         26.5326         26.3628         26.1783         25.9777         25.7604         25.5273         25.2851         25.0562         24.9067    
  29      28.0240         28.0184         28.0072         27.9902         27.9676         27.9392         27.9049         27.8647         27.8183         27.7656    
          27.7065         27.6407         27.5679         27.4880         27.4005         27.3050         27.2011         27.0883         26.9658         26.8330    
          26.6889         26.5326         26.3628         26.1783         25.9777         25.7604         25.5273         25.2851         25.0562         24.9067    
  30      28.0240         28.0184         28.0072         27.9902         27.9676         27.9392         27.9049         27.8647         27.8183         27.7656    
          27.7065         27.6407         27.5679         27.4880         27.4005         27.3050         27.2011         27.0883         26.9658         26.8330    
          26.6889         26.5326         26.3628         26.1783         25.9777         25.7604         25.5273         25.2851         25.0562         24.9067    

 HEAD WILL BE SAVED ON UNIT 1019 AT END OF TIME STEP    1, STRESS PERIOD   29



         TIME SUMMARY AT END OF TIME STEP    1 IN STRESS PERIOD   29
                    SECONDS     MINUTES      HOURS       DAYS        YEARS
                    -----------------------------------------------------------
   TIME STEP LENGTH 2.59200E+05  4320.0      72.000      3.0000     8.21355E-03
 STRESS PERIOD TIME 2.59200E+05  4320.0      72.000      3.0000     8.21355E-03
         TOTAL TIME 7.03296E+07 1.17216E+06  19536.      814.00      2.2286    
 UBDSV1 SAVING           STO-SS ON UNIT   1018 AT TIME STEP      2, STRESS PERIOD     29
 UBDSV1 SAVING           STO-SY ON UNIT   1018 AT TIME STEP      2, STRESS PERIOD     29
 UBDSV1 SAVING     FLOW-JA-FACE ON UNIT   1018 AT TIME STEP      2, STRESS PERIOD     29
 UBDSV06 SAVING              RCH IN MODEL TEST_TRANS       PACKAGE TEST_TRANS      CONNECTED TO MODEL TEST_TRANS       PACKAGE RCHA             ON UNIT   1018 AT TIME STEP      2, STRESS PERIOD     29
 UBDSV06 SAVING              CHD IN MODEL TEST_TRANS       PACKAGE TEST_TRANS      CONNECTED TO MODEL TEST_TRANS       PACKAGE CHD              ON UNIT   1018 AT TIME STEP      2, STRESS PERIOD     29

 HEAD WILL BE SAVED ON UNIT 1019 AT END OF TIME STEP    2, STRESS PERIOD   29
 UBDSV1 SAVING           STO-SS ON UNIT   1018 AT TIME STEP      3, STRESS PERIOD     29
 UBDSV1 SAVING           STO-SY ON UNIT   1018 AT TIME STEP      3, STRESS PERIOD     29
 UBDSV1 SAVING     FLOW-JA-FACE ON UNIT   1018 AT TIME STEP      3, STRESS PERIOD     29
 UBDSV06 SAVING              RCH IN MODEL TEST_TRANS       PACKAGE TEST_TRANS      CONNECTED TO MODEL TEST_TRANS       PACKAGE RCHA             ON UNIT   1018 AT TIME STEP      3, STRESS PERIOD     29
 UBDSV06 SAVING              CHD IN MODEL TEST_TRANS       PACKAGE TEST_TRANS      CONNECTED TO MODEL TEST_TRANS       PACKAGE CHD              ON UNIT   1018 AT TIME STEP      3, STRESS PERIOD     29

 HEAD WILL BE SAVED ON UNIT 1019 AT END OF TIME STEP    3, STRESS PERIOD   29
 UBDSV1 SAVING           STO-SS ON UNIT   1018 AT TIME STEP      4, STRESS PERIOD     29
 UBDSV1 SAVING           STO-SY ON UNIT   1018 AT TIME STEP      4, STRESS PERIOD     29
 UBDSV1 SAVING     FLOW-JA-FACE ON UNIT   1018 AT TIME STEP      4, STRESS PERIOD     29
 UBDSV06 SAVING              RCH IN MODEL TEST_TRANS       PACKAGE TEST_TRANS      CONNECTED TO MODEL TEST_TRANS       PACKAGE RCHA             ON UNIT   1018 AT TIME STEP      4, STRESS PERIOD     29
 UBDSV06 SAVING              CHD IN MODEL TEST_TRANS       PACKAGE TEST_TRANS      CONNECTED TO MODEL TEST_TRANS       PACKAGE CHD              ON UNIT   1018 AT TIME STEP      4, STRESS PERIOD     29

 HEAD WILL BE SAVED ON UNIT 1019 AT END OF TIME STEP    4, STRESS PERIOD   29
 UBDSV1 SAVING           STO-SS ON UNIT   1018 AT TIME STEP      5, STRESS PERIOD     29
 UBDSV1 SAVING           STO-SY ON UNIT   1018 AT TIME STEP      5, STRESS PERIOD     29
 UBDSV1 SAVING     FLOW-JA-FACE ON UNIT   1018 AT TIME STEP      5, STRESS PERIOD     29
 UBDSV06 SAVING              RCH IN MODEL TEST_TRANS       PACKAGE TEST_TRANS      CONNECTED TO MODEL TEST_TRANS       PACKAGE RCHA             ON UNIT   1018 AT TIME STEP      5, STRESS PERIOD     29
 UBDSV06 SAVING              CHD IN MODEL TEST_TRANS       PACKAGE TEST_TRANS      CONNECTED TO MODEL TEST_TRANS       PACKAGE CHD              ON UNIT   1018 AT TIME STEP      5, STRESS PERIOD     29

 HEAD WILL BE SAVED ON UNIT 1019 AT END OF TIME STEP    5, STRESS PERIOD   29
 UBDSV1 SAVING           STO-SS ON UNIT   1018 AT TIME STEP      6, STRESS PERIOD     29
 UBDSV1 SAVING           STO-SY ON UNIT   1018 AT TIME STEP      6, STRESS PERIOD     29
 UBDSV1 SAVING     FLOW-JA-FACE ON UNIT   1018 AT TIME STEP      6, STRESS PERIOD     29
 UBDSV06 SAVING              RCH IN MODEL TEST_TRANS       PACKAGE TEST_TRANS      CONNECTED TO MODEL TEST_TRANS       PACKAGE RCHA             ON UNIT   1018 AT TIME STEP      6, STRESS PERIOD     29
 UBDSV06 SAVING              CHD IN MODEL TEST_TRANS       PACKAGE TEST_TRANS      CONNECTED TO MODEL TEST_TRANS       PACKAGE CHD              ON UNIT   1018 AT TIME STEP      6, STRESS PERIOD     29

 HEAD WILL BE SAVED ON UNIT 1019 AT END OF TIME STEP    6, STRESS PERIOD   29
 UBDSV1 SAVING           STO-SS ON UNIT   1018 AT TIME STEP      7, STRESS PERIOD     29
 UBDSV1 SAVING           STO-SY ON UNIT   1018 AT TIME STEP      7, STRESS PERIOD     29
 UBDSV1 SAVING     FLOW-JA-FACE ON UNIT   1018 AT TIME STEP      7, STRESS PERIOD     29
 UBDSV06 SAVING              RCH IN MODEL TEST_TRANS       PACKAGE TEST_TRANS      CONNECTED TO MODEL TEST_TRANS       PACKAGE RCHA             ON UNIT   1018 AT TIME STEP      7, STRESS PERIOD     29
 UBDSV06 SAVING              CHD IN MODEL TEST_TRANS       PACKAGE TEST_TRANS      CONNECTED TO MODEL TEST_TRANS       PACKAGE CHD              ON UNIT   1018 AT TIME STEP      7, STRESS PERIOD     29

 HEAD WILL BE SAVED ON UNIT 1019 AT END OF TIME STEP    7, STRESS PERIOD   29
 UBDSV1 SAVING           STO-SS ON UNIT   1018 AT TIME STEP      8, STRESS PERIOD     29
 UBDSV1 SAVING           STO-SY ON UNIT   1018 AT TIME STEP      8, STRESS PERIOD     29
 UBDSV1 SAVING     FLOW-JA-FACE ON UNIT   1018 AT TIME STEP      8, STRESS PERIOD     29
 UBDSV06 SAVING              RCH IN MODEL TEST_TRANS       PACKAGE TEST_TRANS      CONNECTED TO MODEL TEST_TRANS       PACKAGE RCHA             ON UNIT   1018 AT TIME STEP      8, STRESS PERIOD     29
 UBDSV06 SAVING              CHD IN MODEL TEST_TRANS       PACKAGE TEST_TRANS      CONNECTED TO MODEL TEST_TRANS       PACKAGE CHD              ON UNIT   1018 AT TIME STEP      8, STRESS PERIOD     29

 HEAD WILL BE SAVED ON UNIT 1019 AT END OF TIME STEP    8, STRESS PERIOD   29
 UBDSV1 SAVING           STO-SS ON UNIT   1018 AT TIME STEP      9, STRESS PERIOD     29
 UBDSV1 SAVING           STO-SY ON UNIT   1018 AT TIME STEP      9, STRESS PERIOD     29
 UBDSV1 SAVING     FLOW-JA-FACE ON UNIT   1018 AT TIME STEP      9, STRESS PERIOD     29
 UBDSV06 SAVING              RCH IN MODEL TEST_TRANS       PACKAGE TEST_TRANS      CONNECTED TO MODEL TEST_TRANS       PACKAGE RCHA             ON UNIT   1018 AT TIME STEP      9, STRESS PERIOD     29
 UBDSV06 SAVING              CHD IN MODEL TEST_TRANS       PACKAGE TEST_TRANS      CONNECTED TO MODEL TEST_TRANS       PACKAGE CHD              ON UNIT   1018 AT TIME STEP      9, STRESS PERIOD     29

 HEAD WILL BE SAVED ON UNIT 1019 AT END OF TIME STEP    9, STRESS PERIOD   29
 UBDSV1 SAVING           STO-SS ON UNIT   1018 AT TIME STEP     10, STRESS PERIOD     29
 UBDSV1 SAVING           STO-SY ON UNIT   1018 AT TIME STEP     10, STRESS PERIOD     29
 UBDSV1 SAVING     FLOW-JA-FACE ON UNIT   1018 AT TIME STEP     10, STRESS PERIOD     29
 UBDSV06 SAVING              RCH IN MODEL TEST_TRANS       PACKAGE TEST_TRANS      CONNECTED TO MODEL TEST_TRANS       PACKAGE RCHA             ON UNIT   1018 AT TIME STEP     10, STRESS PERIOD     29
 UBDSV06 SAVING              CHD IN MODEL TEST_TRANS       PACKAGE TEST_TRANS      CONNECTED TO MODEL TEST_TRANS       PACKAGE CHD              ON UNIT   1018 AT TIME STEP     10, STRESS PERIOD     29
1
  HEAD IN LAYER   1 AT END OF TIME STEP  10 IN STRESS PERIOD   29
  ---------------------------------------------------------------------------

                1               2               3               4               5               6               7               8               9              10
               11              12              13              14              15              16              17              18              19              20
               21              22              23              24              25              26              27              28              29              30
 ................................................................................................................................................................
   1      27.8746         27.8693         27.8586         27.8425         27.8210         27.7941         27.7616         27.7236         27.6800         27.6306    
          27.5753         27.5141         27.4468         27.3731         27.2931         27.2063         27.1126         27.0116         26.9031         26.7865    
          26.6613         26.5269         26.3824         26.2267         26.0582         25.8749         25.6740         25.4510         25.1992         24.9067    
   2      27.8746         27.8693         27.8586         27.8425         27.8210         27.7941         27.7616         27.7236         27.6800         27.6306    
          27.5753         27.5141         27.4468         27.3732         27.2931         27.2063         27.1126         27.0116         26.9031         26.7865    
          26.6613         26.5269         26.3824         26.2267         26.0582         25.8749         25.6740         25.4510         25.1992         24.9067    
   3      27.8746         27.8693         27.8586         27.8425         27.8210         27.7941         27.7616         27.7236         27.6800         27.6306    
          27.5753         27.5141         27.4468         27.3732         27.2931         27.2063         27.1126         27.0116         26.9031         26.7865    
          26.6613         26.5269         26.3824         26.2267         26.0582         25.8749         25.6740         25.4510         25.1992         24.9067    
   4      27.8746         27.8693         27.8586         27.8425         27.8210         27.7941         27.7616         27.7236         27.6800         27.6306    
          27.5753         27.5141         27.4468         27.3732         27.2931         27.2063         27.1126         27.0116         26.9031         26.7865    
          26.6613         26.5269         26.3824         26.2267         26.0582         25.8749         25.6740         25.4510         25.1992         24.9067    
   5      27.8746         27.8693         27.8586         27.8425         27.8210         27.7941         27.7616         27.7236         27.6800         27.6306    
          27.5753         27.5141         27.4468         27.3731         27.2931         27.2063         27.1126         27.0116         26.9031         26.7865    
          26.6613         26.5269         26.3824         26.2267         26.0582         25.8749         25.6740         25.4510         25.1992         24.9067    
   6      27.8746         27.8693         27.8586         27.8425         27.8210         27.7941         27.7616         27.7236         27.6800         27.6306    
          27.5753         27.5141         27.4468         27.3731         27.2931         27.2063         27.1126         27.0116         26.9031         26.7865    
          26.6613         26.5269         26.3824         26.2267         26.0582         25.8749         25.6740         25.4510         25.1992         24.9067    
   7      27.8746         27.8693         27.8586         27.8425         27.8210         27.7941         27.7616         27.7236         27.6800         27.6306    
          27.5753         27.5141         27.4468         27.3731         27.2931         27.2063         27.1126         27.0116         26.9031         26.7865    
          26.6613         26.5269         26.3824         26.2267         26.0582         25.8749         25.6740         25.4510         25.1992         24.9067    
   8      27.8746         27.8693         27.8586         27.8425         27.8210         27.7941         27.7616         27.7236         27.6800         27.6306    
          27.5753         27.5141         27.4468         27.3732         27.2931         27.2063         27.1126         27.0116         26.9031         26.7865    
          26.6613         26.5269         26.3824         26.2267         26.0582         25.8750         25.6740         25.4510         25.1992         24.9067    
   9      27.8746         27.8693         27.8586         27.8425         27.8210         27.7941         27.7616         27.7236         27.6800         27.6306    
          27.5753         27.5141         27.4468         27.3732         27.2931         27.2063         27.1126         27.0116         26.9031         26.7865    
          26.6613         26.5269         26.3824         26.2267         26.0582         25.8750         25.6740         25.4510         25.1992         24.9067    
  10      27.8746         27.8693         27.8586         27.8425         27.8210         27.7941         27.7616         27.7236         27.6800         27.6306    
          27.5753         27.5141         27.4468         27.3732         27.2931         27.2063         27.1126         27.0116         26.9031         26.7865    
          26.6613         26.5269         26.3824         26.2267         26.0582         25.8750         25.6740         25.4510         25.1992         24.9067    
  11      27.8746         27.8693         27.8586         27.8425         27.8210         27.7941         27.7616         27.7236         27.6800         27.6306    
          27.5753         27.5141         27.4468         27.3732         27.2931         27.2063         27.1126         27.0116         26.9031         26.7865    
          26.6613         26.5269         26.3824         26.2267         26.0582         25.8750         25.6740         25.4510         25.1992         24.9067    
  12      27.8746         27.8693         27.8586         27.8425         27.8210         27.7941         27.7616         27.7236         27.6800         27.6306    
          27.5753         27.5141         27.4468         27.3732         27.2931         27.2063         27.1126         27.0116         26.9031         26.7865    
          26.6613         26.5269         26.3824         26.2267         26.0582         25.8750         25.6740         25.4510         25.1992         24.9067    
  13      27.8746         27.8693         27.8586         27.8425         27.8210         27.7941         27.7616         27.7236         27.6800         27.6306    
          27.5753         27.5141         27.4468         27.3732         27.2931         27.2063         27.1126         27.0116         26.9031         26.7865    
          26.6613         26.5269         26.3824         26.2267         26.0582         25.8750         25.6740         25.4510         25.1992         24.9067    
  14      27.8746         27.8693         27.8586         27.8425         27.8210         27.7941         27.7616         27.7236         27.6800         27.6306    
          27.5753         27.5141         27.4468         27.3732         27.2931         27.2063         27.1126         27.0116         26.9031         26.7865    
          26.6613         26.5269         26.3824         26.2267         26.0582         25.8750         25.6740         25.4510         25.1992         24.9067    
  15      27.8746         27.8693         27.8586         27.8425         27.8210         27.7941         27.7616         27.7236         27.6800         27.6306    
          27.5753         27.5141         27.4468         27.3732         27.2931         27.2063         27.1126         27.0116         26.9031         26.7865    
          26.6613         26.5269         26.3824         26.2267         26.0582         25.8750         25.6740         25.4510         25.1992         24.9067    
  16      27.8746         27.8693         27.8586         27.8425         27.8210         27.7941         27.7616         27.7236         27.6800         27.6306    
          27.5753         27.5141         27.4468         27.3732         27.2931         27.2063         27.1126         27.0116         26.9031         26.7865    
          26.6613         26.5269         26.3824         26.2267         26.0582         25.8750         25.6740         25.4510         25.1992         24.9067    
  17      27.8746         27.8693         27.8586         27.8425         27.8210         27.7941         27.7616         27.7236         27.6800         27.6306    
          27.5753         27.5141         27.4468         27.3732         27.2931         27.2063         27.1126         27.0116         26.9031         26.7865    
          26.6613         26.5269         26.3824         26.2267         26.0582         25.8750         25.6740         25.4510         25.1992         24.9067    
  18      27.8746         27.8693         27.8586         27.8425         27.8210         27.7941         27.7616         27.7236         27.6800         27.6306    
          27.5753         27.5141         27.4468         27.3732         27.2931         27.2063         27.1126         27.0116         26.9031         26.7865    
          26.6613         26.5269         26.3824         26.2267         26.0582         25.8750         25.6740         25.4510         25.1992         24.9067    
  19      27.8746         27.8693         27.8586         27.8425         27.8210         27.7941         27.7616         27.7236         27.6800         27.6306    
          27.5753         27.5141         27.4468         27.3732         27.2931         27.2063         27.1126         27.0116         26.9031         26.7865    
          26.6613         26.5269         26.3824         26.2267         26.0582         25.8750         25.6740         25.4510         25.1992         24.9067    
  20      27.8746         27.8693         27.8586         27.8425         27.8210         27.7941         27.7616         27.7236         27.6800         27.6306    
          27.5753         27.5141         27.4468         27.3732         27.2931         27.2063         27.1126         27.0116         26.9031         26.7865    
          26.6613         26.5269         26.3824         26.2267         26.0582         25.8750         25.6740         25.4510         25.1992         24.9067    
  21      27.8746         27.8693         27.8586         27.8425         27.8210         27.7941         27.7616         27.7236         27.6800         27.6306    
          27.5753         27.5141         27.4468         27.3732         27.2931         27.2063         27.1126         27.0116         26.9031         26.7865    
          26.6613         26.5269         26.3824         26.2267         26.0582         25.8750         25.6740         25.4510         25.1992         24.9067    
  22      27.8746         27.8693         27.8586         27.8425         27.8210         27.7941         27.7616         27.7236         27.6800         27.6306    
          27.5753         27.5141         27.4468         27.3732         27.2931         27.2063         27.1126         27.0116         26.9031         26.7865    
          26.6613         26.5269         26.3824         26.2267         26.0582         25.8750         25.6740         25.4510         25.1992         24.9067    
  23      27.8746         27.8693         27.8586         27.8425         27.8210         27.7941         27.7616         27.7236         27.6800         27.6306    
          27.5753         27.5141         27.4468         27.3732         27.2931         27.2063         27.1126         27.0116         26.9031         26.7865    
          26.6613         26.5269         26.3824         26.2267         26.0582         25.8750         25.6740         25.4510         25.1992         24.9067    
  24      27.8746         27.8693         27.8586         27.8425         27.8210         27.7941         27.7616         27.7236         27.6800         27.6306    
          27.5753         27.5141         27.4468         27.3732         27.2931         27.2063         27.1126         27.0116         26.9031         26.7865    
          26.6613         26.5269         26.3824         26.2267         26.0582         25.8750         25.6740         25.4510         25.1992         24.9067    
  25      27.8746         27.8693         27.8586         27.8425         27.8210         27.7941         27.7616         27.7236         27.6800         27.6306    
          27.5753         27.5141         27.4468         27.3732         27.2931         27.2063         27.1126         27.0116         26.9031         26.7865    
          26.6613         26.5269         26.3824         26.2267         26.0582         25.8750         25.6740         25.4510         25.1992         24.9067    
  26      27.8746         27.8693         27.8586         27.8425         27.8210         27.7941         27.7616         27.7236         27.6800         27.6306    
          27.5753         27.5141         27.4468         27.3732         27.2931         27.2063         27.1126         27.0116         26.9031         26.7865    
          26.6613         26.5269         26.3824         26.2267         26.0582         25.8750         25.6740         25.4510         25.1992         24.9067    
  27      27.8746         27.8693         27.8586         27.8425         27.8210         27.7941         27.7616         27.7236         27.6800         27.6306    
          27.5753         27.5141         27.4468         27.3732         27.2931         27.2063         27.1126         27.0116         26.9031         26.7865    
          26.6613         26.5269         26.3824         26.2267         26.0582         25.8750         25.6740         25.4510         25.1992         24.9067    
  28      27.8746         27.8693         27.8586         27.8425         27.8210         27.7941         27.7616         27.7236         27.6800         27.6306    
          27.5753         27.5141         27.4468         27.3732         27.2931         27.2063         27.1126         27.0116         26.9031         26.7865    
          26.6613         26.5269         26.3824         26.2267         26.0582         25.8750         25.6740         25.4510         25.1992         24.9067    
  29      27.8746         27.8693         27.8586         27.8425         27.8210         27.7941         27.7616         27.7236         27.6800         27.6306    
          27.5753         27.5141         27.4468         27.3732         27.2931         27.2063         27.1126         27.0116         26.9031         26.7865    
          26.6613         26.5269         26.3824         26.2267         26.0582         25.8750         25.6740         25.4510         25.1992         24.9067    
  30      27.8746         27.8693         27.8586         27.8425         27.8210         27.7941         27.7616         27.7236         27.6800         27.6306    
          27.5753         27.5141         27.4468         27.3732         27.2931         27.2063         27.1126         27.0116         26.9031         26.7865    
          26.6613         26.5269         26.3824         26.2267         26.0582         25.8750         25.6740         25.4510         25.1992         24.9067    

 HEAD WILL BE SAVED ON UNIT 1019 AT END OF TIME STEP   10, STRESS PERIOD   29


  VOLUME BUDGET FOR ENTIRE MODEL AT END OF TIME STEP   10, STRESS PERIOD  29
  ---------------------------------------------------------------------------------------------------

     CUMULATIVE VOLUME      L**3       RATES FOR THIS TIME STEP      L**3/T          PACKAGE NAME    
     ------------------                 ------------------------                     ----------------

           IN:                                      IN:
           ---                                      ---
              STO-SS =          45.2889                STO-SS =       7.7599E-02     STORAGE         
              STO-SY =       29086.6329                STO-SY =          48.2800     STORAGE         
                 RCH =      142179.5160                   RCH =         107.2606     RCHA            
                 CHD =        1305.4009                   CHD =           0.0000     CHD             

            TOTAL IN =      172616.8388              TOTAL IN =         155.6182

          OUT:                                     OUT:
          ----                                     ----
              STO-SS =          36.5233                STO-SS =       1.0362E-03     STORAGE         
              STO-SY =       23738.2458                STO-SY =           0.7352     STORAGE         
                 RCH =           0.0000                   RCH =           0.0000     RCHA            
                 CHD =      148841.4866                   CHD =         154.8804     CHD             

           TOTAL OUT =      172616.2558             TOTAL OUT =         155.6167

            IN - OUT =           0.5830              IN - OUT =       1.5004E-03

 PERCENT DISCREPANCY =           0.00     PERCENT DISCREPANCY =           0.00




         TIME SUMMARY AT END OF TIME STEP   10 IN STRESS PERIOD   29
                    SECONDS     MINUTES      HOURS       DAYS        YEARS
                    -----------------------------------------------------------
   TIME STEP LENGTH 2.59200E+05  4320.0      72.000      3.0000     8.21355E-03
 STRESS PERIOD TIME 2.59200E+06  43200.      720.00      30.000     8.21355E-02
         TOTAL TIME 7.26624E+07 1.21104E+06  20184.      841.00      2.3025    

 OUTPUT CONTROL FOR STRESS PERIOD 30 IS REPEATED USING SETTINGS FROM A PREVIOUS STRESS PERIOD.


 STRESS PERIOD 30 IS TRANSIENT


                 RECHARGE =  0.8219178E-03
 UBDSV1 SAVING           STO-SS ON UNIT   1018 AT TIME STEP      1, STRESS PERIOD     30
 UBDSV1 SAVING           STO-SY ON UNIT   1018 AT TIME STEP      1, STRESS PERIOD     30
 UBDSV1 SAVING     FLOW-JA-FACE ON UNIT   1018 AT TIME STEP      1, STRESS PERIOD     30
 UBDSV06 SAVING              RCH IN MODEL TEST_TRANS       PACKAGE TEST_TRANS      CONNECTED TO MODEL TEST_TRANS       PACKAGE RCHA             ON UNIT   1018 AT TIME STEP      1, STRESS PERIOD     30
 UBDSV06 SAVING              CHD IN MODEL TEST_TRANS       PACKAGE TEST_TRANS      CONNECTED TO MODEL TEST_TRANS       PACKAGE CHD              ON UNIT   1018 AT TIME STEP      1, STRESS PERIOD     30
1
  HEAD IN LAYER   1 AT END OF TIME STEP   1 IN STRESS PERIOD   30
  ---------------------------------------------------------------------------

                1               2               3               4               5               6               7               8               9              10
               11              12              13              14              15              16              17              18              19              20
               21              22              23              24              25              26              27              28              29              30
 ................................................................................................................................................................
   1      27.8537         27.8484         27.8378         27.8218         27.8005         27.7738         27.7417         27.7041         27.6608         27.6119    
          27.5572         27.4966         27.4299         27.3571         27.2779         27.1922         27.0997         27.0003         26.8936         26.7794    
          26.6575         26.5279         26.3908         26.2470         26.0985         25.9498         25.8104         25.6996         25.6538         25.7352    
   2      27.8537         27.8484         27.8378         27.8218         27.8005         27.7738         27.7417         27.7041         27.6608         27.6119    
          27.5572         27.4966         27.4299         27.3571         27.2779         27.1922         27.0997         27.0003         26.8936         26.7794    
          26.6575         26.5279         26.3908         26.2470         26.0985         25.9498         25.8104         25.6996         25.6538         25.7352    
   3      27.8537         27.8484         27.8378         27.8218         27.8005         27.7738         27.7417         27.7041         27.6608         27.6119    
          27.5572         27.4966         27.4299         27.3571         27.2779         27.1922         27.0997         27.0003         26.8936         26.7794    
          26.6575         26.5279         26.3908         26.2470         26.0985         25.9498         25.8104         25.6996         25.6538         25.7352    
   4      27.8537         27.8484         27.8378         27.8218         27.8005         27.7738         27.7417         27.7041         27.6608         27.6119    
          27.5572         27.4966         27.4299         27.3571         27.2779         27.1922         27.0997         27.0003         26.8936         26.7794    
          26.6575         26.5279         26.3908         26.2470         26.0985         25.9498         25.8104         25.6996         25.6538         25.7352    
   5      27.8537         27.8484         27.8378         27.8218         27.8005         27.7738         27.7417         27.7041         27.6608         27.6119    
          27.5572         27.4966         27.4299         27.3571         27.2779         27.1922         27.0997         27.0003         26.8936         26.7794    
          26.6575         26.5279         26.3908         26.2470         26.0985         25.9498         25.8104         25.6996         25.6538         25.7352    
   6      27.8537         27.8484         27.8378         27.8218         27.8005         27.7738         27.7417         27.7041         27.6608         27.6119    
          27.5572         27.4966         27.4299         27.3571         27.2779         27.1922         27.0997         27.0003         26.8936         26.7794    
          26.6575         26.5279         26.3908         26.2470         26.0985         25.9498         25.8104         25.6996         25.6538         25.7352    
   7      27.8537         27.8484         27.8378         27.8218         27.8005         27.7738         27.7417         27.7041         27.6608         27.6119    
          27.5572         27.4966         27.4299         27.3571         27.2779         27.1922         27.0997         27.0003         26.8936         26.7794    
          26.6575         26.5279         26.3908         26.2470         26.0985         25.9498         25.8104         25.6996         25.6538         25.7352    
   8      27.8537         27.8484         27.8378         27.8218         27.8005         27.7738         27.7417         27.7041         27.6608         27.6119    
          27.5572         27.4966         27.4299         27.3571         27.2779         27.1922         27.0997         27.0003         26.8936         26.7794    
          26.6575         26.5279         26.3908         26.2470         26.0985         25.9498         25.8104         25.6996         25.6538         25.7352    
   9      27.8537         27.8484         27.8378         27.8218         27.8005         27.7738         27.7417         27.7041         27.6608         27.6119    
          27.5572         27.4966         27.4299         27.3571         27.2779         27.1922         27.0997         27.0003         26.8936         26.7794    
          26.6575         26.5279         26.3908         26.2470         26.0985         25.9498         25.8104         25.6996         25.6538         25.7352    
  10      27.8537         27.8484         27.8378         27.8218         27.8005         27.7738         27.7417         27.7041         27.6608         27.6119    
          27.5572         27.4966         27.4299         27.3571         27.2779         27.1922         27.0997         27.0003         26.8936         26.7794    
          26.6575         26.5279         26.3908         26.2470         26.0985         25.9498         25.8104         25.6996         25.6538         25.7352    
  11      27.8537         27.8484         27.8378         27.8218         27.8005         27.7738         27.7417         27.7041         27.6608         27.6119    
          27.5572         27.4966         27.4299         27.3571         27.2779         27.1922         27.0997         27.0003         26.8936         26.7794    
          26.6575         26.5279         26.3908         26.2470         26.0985         25.9498         25.8104         25.6996         25.6538         25.7352    
  12      27.8537         27.8484         27.8378         27.8218         27.8005         27.7739         27.7417         27.7041         27.6608         27.6119    
          27.5572         27.4966         27.4299         27.3571         27.2780         27.1922         27.0997         27.0003         26.8936         26.7794    
          26.6575         26.5279         26.3908         26.2470         26.0985         25.9498         25.8104         25.6996         25.6538         25.7352    
  13      27.8537         27.8484         27.8378         27.8218         27.8005         27.7739         27.7417         27.7041         27.6608         27.6119    
          27.5572         27.4966         27.4299         27.3571         27.2780         27.1922         27.0997         27.0003         26.8936         26.7794    
          26.6575         26.5279         26.3908         26.2470         26.0985         25.9498         25.8104         25.6996         25.6538         25.7352    
  14      27.8537         27.8484         27.8378         27.8218         27.8005         27.7739         27.7417         27.7041         27.6608         27.6119    
          27.5572         27.4966         27.4299         27.3571         27.2780         27.1922         27.0997         27.0003         26.8936         26.7794    
          26.6575         26.5279         26.3908         26.2470         26.0985         25.9498         25.8104         25.6996         25.6538         25.7352    
  15      27.8537         27.8484         27.8378         27.8218         27.8005         27.7739         27.7417         27.7041         27.6608         27.6119    
          27.5572         27.4966         27.4299         27.3571         27.2780         27.1922         27.0997         27.0003         26.8936         26.7794    
          26.6575         26.5279         26.3908         26.2470         26.0985         25.9498         25.8104         25.6996         25.6538         25.7352    
  16      27.8537         27.8484         27.8378         27.8218         27.8005         27.7739         27.7417         27.7041         27.6608         27.6119    
          27.5572         27.4966         27.4299         27.3571         27.2780         27.1922         27.0997         27.0003         26.8936         26.7794    
          26.6575         26.5279         26.3908         26.2470         26.0985         25.9498         25.8104         25.6996         25.6538         25.7352    
  17      27.8537         27.8484         27.8378         27.8218         27.8005         27.7739         27.7417         27.7041         27.6608         27.6119    
          27.5572         27.4966         27.4299         27.3571         27.2780         27.1922         27.0997         27.0003         26.8936         26.7794    
          26.6575         26.5279         26.3908         26.2470         26.0985         25.9498         25.8104         25.6996         25.6538         25.7352    
  18      27.8537         27.8484         27.8378         27.8218         27.8005         27.7739         27.7417         27.7041         27.6608         27.6119    
          27.5572         27.4966         27.4299         27.3571         27.2780         27.1922         27.0997         27.0003         26.8936         26.7794    
          26.6575         26.5279         26.3908         26.2470         26.0985         25.9498         25.8104         25.6996         25.6538         25.7352    
  19      27.8537         27.8484         27.8378         27.8218         27.8005         27.7739         27.7417         27.7041         27.6608         27.6119    
          27.5572         27.4966         27.4299         27.3571         27.2780         27.1922         27.0997         27.0003         26.8936         26.7794    
          26.6575         26.5279         26.3908         26.2470         26.0985         25.9498         25.8104         25.6996         25.6538         25.7352    
  20      27.8537         27.8484         27.8378         27.8218         27.8005         27.7739         27.7417         27.7041         27.6608         27.6119    
          27.5572         27.4966         27.4299         27.3571         27.2780         27.1922         27.0997         27.0003         26.8936         26.7794    
          26.6575         26.5279         26.3908         26.2470         26.0985         25.9498         25.8104         25.6996         25.6538         25.7352    
  21      27.8537         27.8484         27.8378         27.8218         27.8005         27.7739         27.7417         27.7041         27.6608         27.6119    
          27.5572         27.4966         27.4299         27.3571         27.2780         27.1922         27.0997         27.0003         26.8936         26.7794    
          26.6575         26.5279         26.3908         26.2470         26.0985         25.9498         25.8104         25.6996         25.6538         25.7352    
  22      27.8537         27.8484         27.8378         27.8218         27.8005         27.7739         27.7417         27.7041         27.6608         27.6119    
          27.5572         27.4966         27.4299         27.3571         27.2780         27.1922         27.0997         27.0003         26.8936         26.7794    
          26.6575         26.5279         26.3908         26.2470         26.0985         25.9498         25.8104         25.6996         25.6538         25.7352    
  23      27.8537         27.8484         27.8378         27.8218         27.8005         27.7739         27.7417         27.7041         27.6608         27.6119    
          27.5572         27.4966         27.4299         27.3571         27.2780         27.1922         27.0997         27.0003         26.8936         26.7794    
          26.6575         26.5279         26.3908         26.2470         26.0985         25.9498         25.8104         25.6996         25.6538         25.7352    
  24      27.8537         27.8484         27.8378         27.8218         27.8005         27.7739         27.7417         27.7041         27.6608         27.6119    
          27.5572         27.4966         27.4299         27.3571         27.2780         27.1922         27.0997         27.0003         26.8936         26.7794    
          26.6575         26.5279         26.3908         26.2470         26.0985         25.9498         25.8104         25.6996         25.6538         25.7352    
  25      27.8537         27.8484         27.8378         27.8218         27.8005         27.7739         27.7417         27.7041         27.6608         27.6119    
          27.5572         27.4966         27.4299         27.3571         27.2780         27.1922         27.0997         27.0003         26.8936         26.7794    
          26.6575         26.5279         26.3908         26.2470         26.0985         25.9498         25.8104         25.6996         25.6538         25.7352    
  26      27.8537         27.8484         27.8378         27.8218         27.8005         27.7739         27.7417         27.7041         27.6608         27.6119    
          27.5572         27.4966         27.4299         27.3571         27.2780         27.1922         27.0997         27.0003         26.8936         26.7794    
          26.6575         26.5279         26.3908         26.2470         26.0985         25.9498         25.8104         25.6996         25.6538         25.7352    
  27      27.8537         27.8484         27.8378         27.8218         27.8005         27.7739         27.7417         27.7041         27.6608         27.6119    
          27.5572         27.4966         27.4299         27.3571         27.2780         27.1922         27.0997         27.0003         26.8936         26.7794    
          26.6575         26.5279         26.3908         26.2470         26.0985         25.9498         25.8104         25.6996         25.6538         25.7352    
  28      27.8537         27.8484         27.8378         27.8218         27.8005         27.7739         27.7417         27.7041         27.6608         27.6119    
          27.5572         27.4966         27.4299         27.3571         27.2780         27.1922         27.0997         27.0003         26.8936         26.7794    
          26.6575         26.5279         26.3908         26.2470         26.0985         25.9498         25.8104         25.6996         25.6538         25.7352    
  29      27.8537         27.8484         27.8378         27.8218         27.8005         27.7739         27.7417         27.7041         27.6608         27.6119    
          27.5572         27.4966         27.4299         27.3571         27.2780         27.1922         27.0997         27.0003         26.8936         26.7794    
          26.6575         26.5279         26.3908         26.2470         26.0985         25.9498         25.8104         25.6996         25.6538         25.7352    
  30      27.8537         27.8484         27.8378         27.8218         27.8005         27.7739         27.7417         27.7041         27.6608         27.6119    
          27.5572         27.4966         27.4299         27.3571         27.2780         27.1922         27.0997         27.0003         26.8936         26.7794    
          26.6575         26.5279         26.3908         26.2470         26.0985         25.9498         25.8104         25.6996         25.6538         25.7352    

 HEAD WILL BE SAVED ON UNIT 1019 AT END OF TIME STEP    1, STRESS PERIOD   30



         TIME SUMMARY AT END OF TIME STEP    1 IN STRESS PERIOD   30
                    SECONDS     MINUTES      HOURS       DAYS        YEARS
                    -----------------------------------------------------------
   TIME STEP LENGTH 2.59200E+05  4320.0      72.000      3.0000     8.21355E-03
 STRESS PERIOD TIME 2.59200E+05  4320.0      72.000      3.0000     8.21355E-03
         TOTAL TIME 7.29216E+07 1.21536E+06  20256.      844.00      2.3107    
 UBDSV1 SAVING           STO-SS ON UNIT   1018 AT TIME STEP      2, STRESS PERIOD     30
 UBDSV1 SAVING           STO-SY ON UNIT   1018 AT TIME STEP      2, STRESS PERIOD     30
 UBDSV1 SAVING     FLOW-JA-FACE ON UNIT   1018 AT TIME STEP      2, STRESS PERIOD     30
 UBDSV06 SAVING              RCH IN MODEL TEST_TRANS       PACKAGE TEST_TRANS      CONNECTED TO MODEL TEST_TRANS       PACKAGE RCHA             ON UNIT   1018 AT TIME STEP      2, STRESS PERIOD     30
 UBDSV06 SAVING              CHD IN MODEL TEST_TRANS       PACKAGE TEST_TRANS      CONNECTED TO MODEL TEST_TRANS       PACKAGE CHD              ON UNIT   1018 AT TIME STEP      2, STRESS PERIOD     30

 HEAD WILL BE SAVED ON UNIT 1019 AT END OF TIME STEP    2, STRESS PERIOD   30
 UBDSV1 SAVING           STO-SS ON UNIT   1018 AT TIME STEP      3, STRESS PERIOD     30
 UBDSV1 SAVING           STO-SY ON UNIT   1018 AT TIME STEP      3, STRESS PERIOD     30
 UBDSV1 SAVING     FLOW-JA-FACE ON UNIT   1018 AT TIME STEP      3, STRESS PERIOD     30
 UBDSV06 SAVING              RCH IN MODEL TEST_TRANS       PACKAGE TEST_TRANS      CONNECTED TO MODEL TEST_TRANS       PACKAGE RCHA             ON UNIT   1018 AT TIME STEP      3, STRESS PERIOD     30
 UBDSV06 SAVING              CHD IN MODEL TEST_TRANS       PACKAGE TEST_TRANS      CONNECTED TO MODEL TEST_TRANS       PACKAGE CHD              ON UNIT   1018 AT TIME STEP      3, STRESS PERIOD     30

 HEAD WILL BE SAVED ON UNIT 1019 AT END OF TIME STEP    3, STRESS PERIOD   30
 UBDSV1 SAVING           STO-SS ON UNIT   1018 AT TIME STEP      4, STRESS PERIOD     30
 UBDSV1 SAVING           STO-SY ON UNIT   1018 AT TIME STEP      4, STRESS PERIOD     30
 UBDSV1 SAVING     FLOW-JA-FACE ON UNIT   1018 AT TIME STEP      4, STRESS PERIOD     30
 UBDSV06 SAVING              RCH IN MODEL TEST_TRANS       PACKAGE TEST_TRANS      CONNECTED TO MODEL TEST_TRANS       PACKAGE RCHA             ON UNIT   1018 AT TIME STEP      4, STRESS PERIOD     30
 UBDSV06 SAVING              CHD IN MODEL TEST_TRANS       PACKAGE TEST_TRANS      CONNECTED TO MODEL TEST_TRANS       PACKAGE CHD              ON UNIT   1018 AT TIME STEP      4, STRESS PERIOD     30

 HEAD WILL BE SAVED ON UNIT 1019 AT END OF TIME STEP    4, STRESS PERIOD   30
 UBDSV1 SAVING           STO-SS ON UNIT   1018 AT TIME STEP      5, STRESS PERIOD     30
 UBDSV1 SAVING           STO-SY ON UNIT   1018 AT TIME STEP      5, STRESS PERIOD     30
 UBDSV1 SAVING     FLOW-JA-FACE ON UNIT   1018 AT TIME STEP      5, STRESS PERIOD     30
 UBDSV06 SAVING              RCH IN MODEL TEST_TRANS       PACKAGE TEST_TRANS      CONNECTED TO MODEL TEST_TRANS       PACKAGE RCHA             ON UNIT   1018 AT TIME STEP      5, STRESS PERIOD     30
 UBDSV06 SAVING              CHD IN MODEL TEST_TRANS       PACKAGE TEST_TRANS      CONNECTED TO MODEL TEST_TRANS       PACKAGE CHD              ON UNIT   1018 AT TIME STEP      5, STRESS PERIOD     30

 HEAD WILL BE SAVED ON UNIT 1019 AT END OF TIME STEP    5, STRESS PERIOD   30
 UBDSV1 SAVING           STO-SS ON UNIT   1018 AT TIME STEP      6, STRESS PERIOD     30
 UBDSV1 SAVING           STO-SY ON UNIT   1018 AT TIME STEP      6, STRESS PERIOD     30
 UBDSV1 SAVING     FLOW-JA-FACE ON UNIT   1018 AT TIME STEP      6, STRESS PERIOD     30
 UBDSV06 SAVING              RCH IN MODEL TEST_TRANS       PACKAGE TEST_TRANS      CONNECTED TO MODEL TEST_TRANS       PACKAGE RCHA             ON UNIT   1018 AT TIME STEP      6, STRESS PERIOD     30
 UBDSV06 SAVING              CHD IN MODEL TEST_TRANS       PACKAGE TEST_TRANS      CONNECTED TO MODEL TEST_TRANS       PACKAGE CHD              ON UNIT   1018 AT TIME STEP      6, STRESS PERIOD     30

 HEAD WILL BE SAVED ON UNIT 1019 AT END OF TIME STEP    6, STRESS PERIOD   30
 UBDSV1 SAVING           STO-SS ON UNIT   1018 AT TIME STEP      7, STRESS PERIOD     30
 UBDSV1 SAVING           STO-SY ON UNIT   1018 AT TIME STEP      7, STRESS PERIOD     30
 UBDSV1 SAVING     FLOW-JA-FACE ON UNIT   1018 AT TIME STEP      7, STRESS PERIOD     30
 UBDSV06 SAVING              RCH IN MODEL TEST_TRANS       PACKAGE TEST_TRANS      CONNECTED TO MODEL TEST_TRANS       PACKAGE RCHA             ON UNIT   1018 AT TIME STEP      7, STRESS PERIOD     30
 UBDSV06 SAVING              CHD IN MODEL TEST_TRANS       PACKAGE TEST_TRANS      CONNECTED TO MODEL TEST_TRANS       PACKAGE CHD              ON UNIT   1018 AT TIME STEP      7, STRESS PERIOD     30

 HEAD WILL BE SAVED ON UNIT 1019 AT END OF TIME STEP    7, STRESS PERIOD   30
 UBDSV1 SAVING           STO-SS ON UNIT   1018 AT TIME STEP      8, STRESS PERIOD     30
 UBDSV1 SAVING           STO-SY ON UNIT   1018 AT TIME STEP      8, STRESS PERIOD     30
 UBDSV1 SAVING     FLOW-JA-FACE ON UNIT   1018 AT TIME STEP      8, STRESS PERIOD     30
 UBDSV06 SAVING              RCH IN MODEL TEST_TRANS       PACKAGE TEST_TRANS      CONNECTED TO MODEL TEST_TRANS       PACKAGE RCHA             ON UNIT   1018 AT TIME STEP      8, STRESS PERIOD     30
 UBDSV06 SAVING              CHD IN MODEL TEST_TRANS       PACKAGE TEST_TRANS      CONNECTED TO MODEL TEST_TRANS       PACKAGE CHD              ON UNIT   1018 AT TIME STEP      8, STRESS PERIOD     30

 HEAD WILL BE SAVED ON UNIT 1019 AT END OF TIME STEP    8, STRESS PERIOD   30
 UBDSV1 SAVING           STO-SS ON UNIT   1018 AT TIME STEP      9, STRESS PERIOD     30
 UBDSV1 SAVING           STO-SY ON UNIT   1018 AT TIME STEP      9, STRESS PERIOD     30
 UBDSV1 SAVING     FLOW-JA-FACE ON UNIT   1018 AT TIME STEP      9, STRESS PERIOD     30
 UBDSV06 SAVING              RCH IN MODEL TEST_TRANS       PACKAGE TEST_TRANS      CONNECTED TO MODEL TEST_TRANS       PACKAGE RCHA             ON UNIT   1018 AT TIME STEP      9, STRESS PERIOD     30
 UBDSV06 SAVING              CHD IN MODEL TEST_TRANS       PACKAGE TEST_TRANS      CONNECTED TO MODEL TEST_TRANS       PACKAGE CHD              ON UNIT   1018 AT TIME STEP      9, STRESS PERIOD     30

 HEAD WILL BE SAVED ON UNIT 1019 AT END OF TIME STEP    9, STRESS PERIOD   30
 UBDSV1 SAVING           STO-SS ON UNIT   1018 AT TIME STEP     10, STRESS PERIOD     30
 UBDSV1 SAVING           STO-SY ON UNIT   1018 AT TIME STEP     10, STRESS PERIOD     30
 UBDSV1 SAVING     FLOW-JA-FACE ON UNIT   1018 AT TIME STEP     10, STRESS PERIOD     30
 UBDSV06 SAVING              RCH IN MODEL TEST_TRANS       PACKAGE TEST_TRANS      CONNECTED TO MODEL TEST_TRANS       PACKAGE RCHA             ON UNIT   1018 AT TIME STEP     10, STRESS PERIOD     30
 UBDSV06 SAVING              CHD IN MODEL TEST_TRANS       PACKAGE TEST_TRANS      CONNECTED TO MODEL TEST_TRANS       PACKAGE CHD              ON UNIT   1018 AT TIME STEP     10, STRESS PERIOD     30
1
  HEAD IN LAYER   1 AT END OF TIME STEP  10 IN STRESS PERIOD   30
  ---------------------------------------------------------------------------

                1               2               3               4               5               6               7               8               9              10
               11              12              13              14              15              16              17              18              19              20
               21              22              23              24              25              26              27              28              29              30
 ................................................................................................................................................................
   1      27.6881         27.6835         27.6741         27.6601         27.6415         27.6182         27.5902         27.5576         27.5204         27.4786    
          27.4322         27.3813         27.3259         27.2661         27.2020         27.1336         27.0610         26.9843         26.9037         26.8191    
          26.7308         26.6386         26.5426         26.4427         26.3387         26.2301         26.1165         25.9970         25.8704         25.7352    
   2      27.6881         27.6835         27.6741         27.6601         27.6415         27.6182         27.5902         27.5576         27.5204         27.4786    
          27.4322         27.3813         27.3259         27.2661         27.2020         27.1336         27.0610         26.9843         26.9037         26.8191    
          26.7308         26.6386         26.5426         26.4427         26.3387         26.2301         26.1165         25.9970         25.8704         25.7352    
   3      27.6881         27.6835         27.6741         27.6601         27.6415         27.6182         27.5902         27.5576         27.5204         27.4786    
          27.4322         27.3813         27.3259         27.2661         27.2020         27.1336         27.0610         26.9843         26.9037         26.8191    
          26.7308         26.6386         26.5426         26.4427         26.3387         26.2301         26.1165         25.9970         25.8704         25.7352    
   4      27.6881         27.6835         27.6741         27.6601         27.6415         27.6182         27.5902         27.5576         27.5204         27.4786    
          27.4322         27.3813         27.3259         27.2661         27.2020         27.1336         27.0610         26.9843         26.9037         26.8191    
          26.7308         26.6386         26.5426         26.4427         26.3387         26.2301         26.1165         25.9970         25.8704         25.7352    
   5      27.6881         27.6835         27.6741         27.6601         27.6415         27.6182         27.5902         27.5576         27.5204         27.4786    
          27.4322         27.3813         27.3259         27.2661         27.2020         27.1336         27.0610         26.9843         26.9037         26.8191    
          26.7308         26.6386         26.5426         26.4427         26.3387         26.2301         26.1165         25.9970         25.8704         25.7352    
   6      27.6881         27.6835         27.6741         27.6601         27.6415         27.6182         27.5902         27.5576         27.5204         27.4786    
          27.4322         27.3813         27.3259         27.2661         27.2020         27.1336         27.0610         26.9843         26.9037         26.8191    
          26.7308         26.6386         26.5426         26.4427         26.3387         26.2301         26.1165         25.9970         25.8704         25.7352    
   7      27.6881         27.6835         27.6741         27.6601         27.6415         27.6182         27.5902         27.5576         27.5204         27.4786    
          27.4322         27.3813         27.3259         27.2661         27.2020         27.1336         27.0610         26.9843         26.9037         26.8191    
          26.7308         26.6386         26.5426         26.4427         26.3387         26.2301         26.1165         25.9970         25.8704         25.7352    
   8      27.6881         27.6835         27.6741         27.6601         27.6415         27.6182         27.5902         27.5576         27.5204         27.4786    
          27.4322         27.3813         27.3259         27.2661         27.2020         27.1336         27.0610         26.9843         26.9037         26.8191    
          26.7308         26.6386         26.5426         26.4427         26.3387         26.2301         26.1165         25.9970         25.8704         25.7352    
   9      27.6881         27.6835         27.6741         27.6601         27.6415         27.6182         27.5902         27.5576         27.5204         27.4786    
          27.4322         27.3813         27.3259         27.2661         27.2020         27.1336         27.0610         26.9843         26.9037         26.8191    
          26.7308         26.6386         26.5426         26.4427         26.3387         26.2301         26.1165         25.9970         25.8704         25.7352    
  10      27.6881         27.6835         27.6741         27.6601         27.6415         27.6182         27.5902         27.5576         27.5204         27.4786    
          27.4322         27.3813         27.3259         27.2661         27.2020         27.1336         27.0610         26.9843         26.9037         26.8191    
          26.7308         26.6386         26.5426         26.4427         26.3387         26.2301         26.1165         25.9970         25.8704         25.7352    
  11      27.6881         27.6835         27.6741         27.6601         27.6415         27.6182         27.5902         27.5576         27.5204         27.4786    
          27.4322         27.3813         27.3259         27.2661         27.2020         27.1336         27.0610         26.9843         26.9037         26.8191    
          26.7308         26.6386         26.5426         26.4427         26.3387         26.2301         26.1165         25.9970         25.8704         25.7352    
  12      27.6881         27.6835         27.6741         27.6601         27.6415         27.6182         27.5902         27.5576         27.5204         27.4786    
          27.4322         27.3813         27.3259         27.2661         27.2020         27.1336         27.0610         26.9843         26.9037         26.8191    
          26.7308         26.6386         26.5426         26.4427         26.3387         26.2301         26.1165         25.9970         25.8704         25.7352    
  13      27.6881         27.6835         27.6741         27.6601         27.6415         27.6182         27.5902         27.5576         27.5204         27.4786    
          27.4322         27.3813         27.3259         27.2661         27.2020         27.1336         27.0610         26.9843         26.9037         26.8191    
          26.7308         26.6386         26.5426         26.4427         26.3387         26.2301         26.1165         25.9970         25.8704         25.7352    
  14      27.6881         27.6835         27.6741         27.6601         27.6415         27.6182         27.5902         27.5576         27.5204         27.4786    
          27.4322         27.3813         27.3259         27.2661         27.2020         27.1336         27.0610         26.9843         26.9037         26.8191    
          26.7308         26.6386         26.5426         26.4427         26.3387         26.2301         26.1165         25.9970         25.8704         25.7352    
  15      27.6881         27.6835         27.6741         27.6601         27.6415         27.6182         27.5902         27.5576         27.5204         27.4786    
          27.4322         27.3813         27.3259         27.2661         27.2020         27.1336         27.0610         26.9843         26.9037         26.8191    
          26.7308         26.6386         26.5426         26.4427         26.3387         26.2301         26.1165         25.9970         25.8704         25.7352    
  16      27.6881         27.6835         27.6741         27.6601         27.6415         27.6182         27.5902         27.5576         27.5204         27.4786    
          27.4322         27.3813         27.3259         27.2661         27.2020         27.1336         27.0610         26.9843         26.9037         26.8191    
          26.7308         26.6386         26.5426         26.4427         26.3387         26.2301         26.1165         25.9970         25.8704         25.7352    
  17      27.6881         27.6835         27.6741         27.6601         27.6415         27.6182         27.5902         27.5576         27.5204         27.4786    
          27.4322         27.3813         27.3259         27.2661         27.2020         27.1336         27.0610         26.9843         26.9037         26.8191    
          26.7308         26.6386         26.5426         26.4427         26.3387         26.2301         26.1165         25.9970         25.8704         25.7352    
  18      27.6881         27.6835         27.6741         27.6601         27.6415         27.6182         27.5902         27.5576         27.5204         27.4786    
          27.4322         27.3813         27.3259         27.2661         27.2020         27.1336         27.0610         26.9843         26.9037         26.8191    
          26.7308         26.6386         26.5426         26.4427         26.3387         26.2301         26.1165         25.9970         25.8704         25.7352    
  19      27.6881         27.6835         27.6741         27.6601         27.6415         27.6182         27.5902         27.5576         27.5204         27.4786    
          27.4322         27.3813         27.3259         27.2661         27.2020         27.1336         27.0610         26.9843         26.9037         26.8191    
          26.7308         26.6386         26.5426         26.4427         26.3387         26.2301         26.1165         25.9970         25.8704         25.7352    
  20      27.6881         27.6835         27.6741         27.6601         27.6415         27.6182         27.5902         27.5576         27.5204         27.4786    
          27.4322         27.3813         27.3259         27.2661         27.2020         27.1336         27.0610         26.9843         26.9037         26.8191    
          26.7308         26.6386         26.5426         26.4427         26.3387         26.2301         26.1165         25.9970         25.8704         25.7352    
  21      27.6881         27.6835         27.6741         27.6601         27.6415         27.6182         27.5902         27.5576         27.5204         27.4786    
          27.4322         27.3813         27.3259         27.2661         27.2020         27.1336         27.0610         26.9843         26.9037         26.8191    
          26.7308         26.6386         26.5426         26.4427         26.3387         26.2301         26.1165         25.9970         25.8704         25.7352    
  22      27.6881         27.6835         27.6741         27.6601         27.6415         27.6182         27.5902         27.5576         27.5204         27.4786    
          27.4322         27.3813         27.3259         27.2661         27.2020         27.1336         27.0610         26.9843         26.9037         26.8191    
          26.7308         26.6386         26.5426         26.4427         26.3387         26.2301         26.1165         25.9970         25.8704         25.7352    
  23      27.6881         27.6835         27.6741         27.6601         27.6415         27.6182         27.5902         27.5576         27.5204         27.4786    
          27.4322         27.3813         27.3259         27.2661         27.2020         27.1336         27.0610         26.9843         26.9037         26.8191    
          26.7308         26.6386         26.5426         26.4427         26.3387         26.2301         26.1165         25.9970         25.8704         25.7352    
  24      27.6882         27.6835         27.6741         27.6601         27.6415         27.6182         27.5902         27.5576         27.5204         27.4786    
          27.4322         27.3813         27.3259         27.2661         27.2020         27.1336         27.0610         26.9843         26.9037         26.8191    
          26.7308         26.6386         26.5426         26.4427         26.3387         26.2301         26.1165         25.9970         25.8704         25.7352    
  25      27.6882         27.6835         27.6741         27.6601         27.6415         27.6182         27.5902         27.5576         27.5204         27.4786    
          27.4322         27.3813         27.3259         27.2661         27.2020         27.1336         27.0610         26.9843         26.9037         26.8191    
          26.7308         26.6386         26.5426         26.4427         26.3387         26.2301         26.1165         25.9970         25.8704         25.7352    
  26      27.6882         27.6835         27.6741         27.6601         27.6415         27.6182         27.5902         27.5576         27.5204         27.4786    
          27.4322         27.3813         27.3259         27.2661         27.2020         27.1336         27.0610         26.9843         26.9037         26.8191    
          26.7308         26.6386         26.5426         26.4427         26.3387         26.2301         26.1165         25.9970         25.8704         25.7352    
  27      27.6881         27.6835         27.6741         27.6601         27.6415         27.6182         27.5902         27.5576         27.5204         27.4786    
          27.4322         27.3813         27.3259         27.2661         27.2020         27.1336         27.0610         26.9843         26.9037         26.8191    
          26.7308         26.6386         26.5426         26.4427         26.3387         26.2301         26.1165         25.9970         25.8704         25.7352    
  28      27.6881         27.6835         27.6741         27.6601         27.6415         27.6182         27.5902         27.5576         27.5204         27.4786    
          27.4322         27.3813         27.3259         27.2661         27.2020         27.1336         27.0610         26.9843         26.9037         26.8191    
          26.7308         26.6386         26.5426         26.4427         26.3387         26.2301         26.1165         25.9970         25.8704         25.7352    
  29      27.6881         27.6835         27.6741         27.6601         27.6415         27.6182         27.5902         27.5576         27.5204         27.4786    
          27.4322         27.3813         27.3259         27.2661         27.2020         27.1336         27.0610         26.9843         26.9037         26.8191    
          26.7308         26.6386         26.5426         26.4427         26.3387         26.2301         26.1165         25.9970         25.8704         25.7352    
  30      27.6881         27.6835         27.6741         27.6601         27.6415         27.6182         27.5902         27.5576         27.5204         27.4786    
          27.4322         27.3813         27.3259         27.2661         27.2020         27.1336         27.0610         26.9843         26.9037         26.8191    
          26.7308         26.6386         26.5426         26.4427         26.3387         26.2301         26.1165         25.9970         25.8704         25.7352    

 HEAD WILL BE SAVED ON UNIT 1019 AT END OF TIME STEP   10, STRESS PERIOD   30


  VOLUME BUDGET FOR ENTIRE MODEL AT END OF TIME STEP   10, STRESS PERIOD  30
  ---------------------------------------------------------------------------------------------------

     CUMULATIVE VOLUME      L**3       RATES FOR THIS TIME STEP      L**3/T          PACKAGE NAME    
     ------------------                 ------------------------                     ----------------

           IN:                                      IN:
           ---                                      ---
              STO-SS =          47.7213                STO-SS =       6.0992E-02     STORAGE         
              STO-SY =       30598.8839                STO-SY =          37.9996     STORAGE         
                 RCH =      144324.7215                   RCH =          71.5068     RCHA            
                 CHD =        1475.8079                   CHD =           0.0000     CHD             

            TOTAL IN =      176447.1347              TOTAL IN =         109.5675

          OUT:                                     OUT:
          ----                                     ----
              STO-SS =          39.0531                STO-SS =       1.6923E-02     STORAGE         
              STO-SY =       25488.0015                STO-SY =          11.3644     STORAGE         
                 RCH =           0.0000                   RCH =           0.0000     RCHA            
                 CHD =      150919.5451                   CHD =          98.1875     CHD             

           TOTAL OUT =      176446.5997             TOTAL OUT =         109.5688

            IN - OUT =           0.5350              IN - OUT =      -1.3410E-03

 PERCENT DISCREPANCY =           0.00     PERCENT DISCREPANCY =          -0.00




         TIME SUMMARY AT END OF TIME STEP   10 IN STRESS PERIOD   30
                    SECONDS     MINUTES      HOURS       DAYS        YEARS
                    -----------------------------------------------------------
   TIME STEP LENGTH 2.59200E+05  4320.0      72.000      3.0000     8.21355E-03
 STRESS PERIOD TIME 2.59200E+06  43200.      720.00      30.000     8.21355E-02
         TOTAL TIME 7.52544E+07 1.25424E+06  20904.      871.00      2.3847    

 OUTPUT CONTROL FOR STRESS PERIOD 31 IS REPEATED USING SETTINGS FROM A PREVIOUS STRESS PERIOD.


 STRESS PERIOD 31 IS TRANSIENT


                 RECHARGE =  0.5479452E-03
 UBDSV1 SAVING           STO-SS ON UNIT   1018 AT TIME STEP      1, STRESS PERIOD     31
 UBDSV1 SAVING           STO-SY ON UNIT   1018 AT TIME STEP      1, STRESS PERIOD     31
 UBDSV1 SAVING     FLOW-JA-FACE ON UNIT   1018 AT TIME STEP      1, STRESS PERIOD     31
 UBDSV06 SAVING              RCH IN MODEL TEST_TRANS       PACKAGE TEST_TRANS      CONNECTED TO MODEL TEST_TRANS       PACKAGE RCHA             ON UNIT   1018 AT TIME STEP      1, STRESS PERIOD     31
 UBDSV06 SAVING              CHD IN MODEL TEST_TRANS       PACKAGE TEST_TRANS      CONNECTED TO MODEL TEST_TRANS       PACKAGE CHD              ON UNIT   1018 AT TIME STEP      1, STRESS PERIOD     31
1
  HEAD IN LAYER   1 AT END OF TIME STEP   1 IN STRESS PERIOD   31
  ---------------------------------------------------------------------------

                1               2               3               4               5               6               7               8               9              10
               11              12              13              14              15              16              17              18              19              20
               21              22              23              24              25              26              27              28              29              30
 ................................................................................................................................................................
   1      27.6687         27.6641         27.6550         27.6413         27.6230         27.6001         27.5728         27.5408         27.5044         27.4635    
          27.4182         27.3684         27.3144         27.2560         27.1934         27.1268         27.0562         26.9818         26.9039         26.8228    
          26.7390         26.6533         26.5669         26.4820         26.4020         26.3329         26.2846         26.2736         26.3254         26.4774    
   2      27.6687         27.6641         27.6550         27.6413         27.6230         27.6001         27.5728         27.5408         27.5044         27.4635    
          27.4182         27.3684         27.3144         27.2560         27.1934         27.1268         27.0562         26.9818         26.9039         26.8228    
          26.7390         26.6533         26.5669         26.4820         26.4020         26.3329         26.2846         26.2736         26.3254         26.4774    
   3      27.6687         27.6641         27.6550         27.6413         27.6230         27.6001         27.5728         27.5408         27.5044         27.4635    
          27.4182         27.3684         27.3144         27.2560         27.1934         27.1268         27.0562         26.9818         26.9039         26.8228    
          26.7390         26.6533         26.5669         26.4820         26.4020         26.3329         26.2846         26.2736         26.3254         26.4774    
   4      27.6687         27.6641         27.6550         27.6413         27.6230         27.6001         27.5728         27.5408         27.5044         27.4635    
          27.4182         27.3684         27.3144         27.2560         27.1934         27.1268         27.0562         26.9818         26.9039         26.8228    
          26.7390         26.6533         26.5669         26.4820         26.4020         26.3329         26.2846         26.2736         26.3254         26.4774    
   5      27.6687         27.6641         27.6550         27.6413         27.6230         27.6001         27.5728         27.5408         27.5044         27.4635    
          27.4182         27.3684         27.3144         27.2560         27.1934         27.1268         27.0562         26.9818         26.9039         26.8228    
          26.7390         26.6533         26.5669         26.4820         26.4020         26.3329         26.2846         26.2736         26.3254         26.4774    
   6      27.6687         27.6641         27.6550         27.6413         27.6230         27.6001         27.5728         27.5408         27.5044         27.4635    
          27.4182         27.3684         27.3144         27.2560         27.1934         27.1268         27.0562         26.9818         26.9039         26.8228    
          26.7390         26.6533         26.5669         26.4820         26.4020         26.3329         26.2846         26.2736         26.3254         26.4774    
   7      27.6687         27.6641         27.6550         27.6413         27.6230         27.6001         27.5728         27.5408         27.5044         27.4635    
          27.4182         27.3684         27.3144         27.2560         27.1934         27.1268         27.0562         26.9818         26.9039         26.8228    
          26.7390         26.6533         26.5669         26.4820         26.4020         26.3329         26.2846         26.2736         26.3254         26.4774    
   8      27.6687         27.6641         27.6550         27.6413         27.6230         27.6001         27.5728         27.5408         27.5044         27.4635    
          27.4182         27.3684         27.3144         27.2560         27.1934         27.1268         27.0562         26.9818         26.9039         26.8228    
          26.7390         26.6533         26.5669         26.4820         26.4020         26.3329         26.2846         26.2736         26.3254         26.4774    
   9      27.6687         27.6641         27.6550         27.6413         27.6230         27.6001         27.5728         27.5408         27.5044         27.4635    
          27.4182         27.3684         27.3144         27.2560         27.1934         27.1268         27.0562         26.9818         26.9039         26.8228    
          26.7390         26.6533         26.5669         26.4820         26.4020         26.3329         26.2846         26.2736         26.3254         26.4774    
  10      27.6687         27.6641         27.6550         27.6413         27.6230         27.6001         27.5728         27.5408         27.5044         27.4635    
          27.4182         27.3684         27.3144         27.2560         27.1934         27.1268         27.0562         26.9818         26.9039         26.8228    
          26.7390         26.6533         26.5669         26.4820         26.4020         26.3329         26.2846         26.2736         26.3254         26.4774    
  11      27.6687         27.6641         27.6550         27.6413         27.6230         27.6001         27.5728         27.5408         27.5044         27.4635    
          27.4182         27.3684         27.3144         27.2560         27.1934         27.1268         27.0562         26.9818         26.9039         26.8228    
          26.7390         26.6533         26.5669         26.4820         26.4020         26.3329         26.2846         26.2736         26.3254         26.4774    
  12      27.6687         27.6641         27.6550         27.6413         27.6230         27.6001         27.5728         27.5408         27.5044         27.4635    
          27.4182         27.3684         27.3144         27.2560         27.1934         27.1268         27.0562         26.9818         26.9039         26.8228    
          26.7390         26.6533         26.5669         26.4820         26.4020         26.3329         26.2846         26.2736         26.3254         26.4774    
  13      27.6687         27.6641         27.6550         27.6413         27.6230         27.6001         27.5728         27.5408         27.5044         27.4635    
          27.4182         27.3684         27.3144         27.2560         27.1934         27.1268         27.0562         26.9818         26.9039         26.8228    
          26.7390         26.6533         26.5669         26.4820         26.4020         26.3329         26.2846         26.2736         26.3254         26.4774    
  14      27.6687         27.6641         27.6550         27.6413         27.6230         27.6001         27.5728         27.5408         27.5044         27.4635    
          27.4182         27.3684         27.3144         27.2560         27.1934         27.1268         27.0562         26.9818         26.9039         26.8228    
          26.7390         26.6533         26.5669         26.4820         26.4020         26.3329         26.2846         26.2736         26.3254         26.4774    
  15      27.6687         27.6641         27.6550         27.6413         27.6230         27.6001         27.5728         27.5408         27.5044         27.4635    
          27.4182         27.3684         27.3144         27.2560         27.1934         27.1268         27.0562         26.9818         26.9039         26.8228    
          26.7390         26.6533         26.5669         26.4820         26.4020         26.3329         26.2846         26.2736         26.3254         26.4774    
  16      27.6687         27.6641         27.6550         27.6413         27.6230         27.6001         27.5728         27.5408         27.5044         27.4635    
          27.4182         27.3684         27.3144         27.2560         27.1934         27.1268         27.0562         26.9818         26.9039         26.8228    
          26.7390         26.6533         26.5669         26.4820         26.4020         26.3329         26.2846         26.2736         26.3254         26.4774    
  17      27.6687         27.6641         27.6550         27.6413         27.6230         27.6001         27.5728         27.5408         27.5044         27.4635    
          27.4182         27.3684         27.3144         27.2560         27.1934         27.1268         27.0562         26.9818         26.9039         26.8228    
          26.7390         26.6533         26.5669         26.4820         26.4020         26.3329         26.2846         26.2736         26.3254         26.4774    
  18      27.6687         27.6641         27.6550         27.6413         27.6230         27.6001         27.5728         27.5408         27.5044         27.4635    
          27.4182         27.3684         27.3144         27.2560         27.1934         27.1268         27.0562         26.9818         26.9039         26.8228    
          26.7390         26.6533         26.5669         26.4820         26.4020         26.3329         26.2846         26.2736         26.3254         26.4774    
  19      27.6687         27.6641         27.6550         27.6413         27.6230         27.6001         27.5728         27.5408         27.5044         27.4635    
          27.4182         27.3684         27.3144         27.2560         27.1934         27.1268         27.0562         26.9818         26.9039         26.8228    
          26.7390         26.6533         26.5669         26.4820         26.4020         26.3329         26.2846         26.2736         26.3254         26.4774    
  20      27.6687         27.6641         27.6550         27.6413         27.6230         27.6001         27.5728         27.5408         27.5044         27.4635    
          27.4182         27.3684         27.3144         27.2560         27.1934         27.1268         27.0562         26.9818         26.9039         26.8228    
          26.7390         26.6533         26.5669         26.4820         26.4020         26.3329         26.2846         26.2736         26.3254         26.4774    
  21      27.6687         27.6641         27.6550         27.6413         27.6230         27.6001         27.5728         27.5408         27.5044         27.4635    
          27.4182         27.3684         27.3144         27.2560         27.1934         27.1268         27.0562         26.9818         26.9039         26.8228    
          26.7390         26.6533         26.5669         26.4820         26.4020         26.3329         26.2846         26.2736         26.3254         26.4774    
  22      27.6687         27.6641         27.6550         27.6413         27.6230         27.6001         27.5728         27.5408         27.5044         27.4635    
          27.4182         27.3684         27.3144         27.2560         27.1934         27.1268         27.0562         26.9818         26.9039         26.8228    
          26.7390         26.6533         26.5669         26.4820         26.4020         26.3329         26.2846         26.2736         26.3254         26.4774    
  23      27.6687         27.6641         27.6550         27.6413         27.6230         27.6001         27.5728         27.5408         27.5044         27.4635    
          27.4182         27.3684         27.3144         27.2560         27.1934         27.1268         27.0562         26.9818         26.9039         26.8228    
          26.7390         26.6533         26.5669         26.4820         26.4020         26.3329         26.2846         26.2736         26.3254         26.4774    
  24      27.6687         27.6641         27.6550         27.6413         27.6230         27.6001         27.5728         27.5408         27.5044         27.4635    
          27.4182         27.3684         27.3144         27.2560         27.1934         27.1268         27.0562         26.9818         26.9039         26.8228    
          26.7390         26.6533         26.5669         26.4820         26.4020         26.3329         26.2846         26.2736         26.3254         26.4774    
  25      27.6687         27.6641         27.6550         27.6413         27.6230         27.6001         27.5728         27.5408         27.5044         27.4635    
          27.4182         27.3684         27.3144         27.2560         27.1934         27.1268         27.0562         26.9818         26.9039         26.8228    
          26.7390         26.6533         26.5669         26.4820         26.4020         26.3329         26.2846         26.2736         26.3254         26.4774    
  26      27.6687         27.6641         27.6550         27.6413         27.6230         27.6001         27.5728         27.5408         27.5044         27.4635    
          27.4182         27.3684         27.3144         27.2560         27.1934         27.1268         27.0562         26.9818         26.9039         26.8228    
          26.7390         26.6533         26.5669         26.4820         26.4020         26.3329         26.2846         26.2736         26.3254         26.4774    
  27      27.6687         27.6641         27.6550         27.6413         27.6230         27.6001         27.5728         27.5408         27.5044         27.4635    
          27.4182         27.3684         27.3144         27.2560         27.1934         27.1268         27.0562         26.9818         26.9039         26.8228    
          26.7390         26.6533         26.5669         26.4820         26.4020         26.3329         26.2846         26.2736         26.3254         26.4774    
  28      27.6687         27.6641         27.6550         27.6413         27.6230         27.6001         27.5728         27.5408         27.5044         27.4635    
          27.4182         27.3684         27.3144         27.2560         27.1934         27.1268         27.0562         26.9818         26.9039         26.8228    
          26.7390         26.6533         26.5669         26.4820         26.4020         26.3329         26.2846         26.2736         26.3254         26.4774    
  29      27.6687         27.6641         27.6550         27.6413         27.6230         27.6001         27.5728         27.5408         27.5044         27.4635    
          27.4182         27.3684         27.3144         27.2560         27.1934         27.1268         27.0562         26.9818         26.9039         26.8228    
          26.7390         26.6533         26.5669         26.4820         26.4020         26.3329         26.2846         26.2736         26.3254         26.4774    
  30      27.6687         27.6641         27.6550         27.6413         27.6230         27.6001         27.5728         27.5408         27.5044         27.4635    
          27.4182         27.3684         27.3144         27.2560         27.1934         27.1268         27.0562         26.9818         26.9039         26.8228    
          26.7390         26.6533         26.5669         26.4820         26.4020         26.3329         26.2846         26.2736         26.3254         26.4774    

 HEAD WILL BE SAVED ON UNIT 1019 AT END OF TIME STEP    1, STRESS PERIOD   31



         TIME SUMMARY AT END OF TIME STEP    1 IN STRESS PERIOD   31
                    SECONDS     MINUTES      HOURS       DAYS        YEARS
                    -----------------------------------------------------------
   TIME STEP LENGTH 2.59200E+05  4320.0      72.000      3.0000     8.21355E-03
 STRESS PERIOD TIME 2.59200E+05  4320.0      72.000      3.0000     8.21355E-03
         TOTAL TIME 7.55136E+07 1.25856E+06  20976.      874.00      2.3929    
 UBDSV1 SAVING           STO-SS ON UNIT   1018 AT TIME STEP      2, STRESS PERIOD     31
 UBDSV1 SAVING           STO-SY ON UNIT   1018 AT TIME STEP      2, STRESS PERIOD     31
 UBDSV1 SAVING     FLOW-JA-FACE ON UNIT   1018 AT TIME STEP      2, STRESS PERIOD     31
 UBDSV06 SAVING              RCH IN MODEL TEST_TRANS       PACKAGE TEST_TRANS      CONNECTED TO MODEL TEST_TRANS       PACKAGE RCHA             ON UNIT   1018 AT TIME STEP      2, STRESS PERIOD     31
 UBDSV06 SAVING              CHD IN MODEL TEST_TRANS       PACKAGE TEST_TRANS      CONNECTED TO MODEL TEST_TRANS       PACKAGE CHD              ON UNIT   1018 AT TIME STEP      2, STRESS PERIOD     31

 HEAD WILL BE SAVED ON UNIT 1019 AT END OF TIME STEP    2, STRESS PERIOD   31
 UBDSV1 SAVING           STO-SS ON UNIT   1018 AT TIME STEP      3, STRESS PERIOD     31
 UBDSV1 SAVING           STO-SY ON UNIT   1018 AT TIME STEP      3, STRESS PERIOD     31
 UBDSV1 SAVING     FLOW-JA-FACE ON UNIT   1018 AT TIME STEP      3, STRESS PERIOD     31
 UBDSV06 SAVING              RCH IN MODEL TEST_TRANS       PACKAGE TEST_TRANS      CONNECTED TO MODEL TEST_TRANS       PACKAGE RCHA             ON UNIT   1018 AT TIME STEP      3, STRESS PERIOD     31
 UBDSV06 SAVING              CHD IN MODEL TEST_TRANS       PACKAGE TEST_TRANS      CONNECTED TO MODEL TEST_TRANS       PACKAGE CHD              ON UNIT   1018 AT TIME STEP      3, STRESS PERIOD     31

 HEAD WILL BE SAVED ON UNIT 1019 AT END OF TIME STEP    3, STRESS PERIOD   31
 UBDSV1 SAVING           STO-SS ON UNIT   1018 AT TIME STEP      4, STRESS PERIOD     31
 UBDSV1 SAVING           STO-SY ON UNIT   1018 AT TIME STEP      4, STRESS PERIOD     31
 UBDSV1 SAVING     FLOW-JA-FACE ON UNIT   1018 AT TIME STEP      4, STRESS PERIOD     31
 UBDSV06 SAVING              RCH IN MODEL TEST_TRANS       PACKAGE TEST_TRANS      CONNECTED TO MODEL TEST_TRANS       PACKAGE RCHA             ON UNIT   1018 AT TIME STEP      4, STRESS PERIOD     31
 UBDSV06 SAVING              CHD IN MODEL TEST_TRANS       PACKAGE TEST_TRANS      CONNECTED TO MODEL TEST_TRANS       PACKAGE CHD              ON UNIT   1018 AT TIME STEP      4, STRESS PERIOD     31

 HEAD WILL BE SAVED ON UNIT 1019 AT END OF TIME STEP    4, STRESS PERIOD   31
 UBDSV1 SAVING           STO-SS ON UNIT   1018 AT TIME STEP      5, STRESS PERIOD     31
 UBDSV1 SAVING           STO-SY ON UNIT   1018 AT TIME STEP      5, STRESS PERIOD     31
 UBDSV1 SAVING     FLOW-JA-FACE ON UNIT   1018 AT TIME STEP      5, STRESS PERIOD     31
 UBDSV06 SAVING              RCH IN MODEL TEST_TRANS       PACKAGE TEST_TRANS      CONNECTED TO MODEL TEST_TRANS       PACKAGE RCHA             ON UNIT   1018 AT TIME STEP      5, STRESS PERIOD     31
 UBDSV06 SAVING              CHD IN MODEL TEST_TRANS       PACKAGE TEST_TRANS      CONNECTED TO MODEL TEST_TRANS       PACKAGE CHD              ON UNIT   1018 AT TIME STEP      5, STRESS PERIOD     31

 HEAD WILL BE SAVED ON UNIT 1019 AT END OF TIME STEP    5, STRESS PERIOD   31
 UBDSV1 SAVING           STO-SS ON UNIT   1018 AT TIME STEP      6, STRESS PERIOD     31
 UBDSV1 SAVING           STO-SY ON UNIT   1018 AT TIME STEP      6, STRESS PERIOD     31
 UBDSV1 SAVING     FLOW-JA-FACE ON UNIT   1018 AT TIME STEP      6, STRESS PERIOD     31
 UBDSV06 SAVING              RCH IN MODEL TEST_TRANS       PACKAGE TEST_TRANS      CONNECTED TO MODEL TEST_TRANS       PACKAGE RCHA             ON UNIT   1018 AT TIME STEP      6, STRESS PERIOD     31
 UBDSV06 SAVING              CHD IN MODEL TEST_TRANS       PACKAGE TEST_TRANS      CONNECTED TO MODEL TEST_TRANS       PACKAGE CHD              ON UNIT   1018 AT TIME STEP      6, STRESS PERIOD     31

 HEAD WILL BE SAVED ON UNIT 1019 AT END OF TIME STEP    6, STRESS PERIOD   31
 UBDSV1 SAVING           STO-SS ON UNIT   1018 AT TIME STEP      7, STRESS PERIOD     31
 UBDSV1 SAVING           STO-SY ON UNIT   1018 AT TIME STEP      7, STRESS PERIOD     31
 UBDSV1 SAVING     FLOW-JA-FACE ON UNIT   1018 AT TIME STEP      7, STRESS PERIOD     31
 UBDSV06 SAVING              RCH IN MODEL TEST_TRANS       PACKAGE TEST_TRANS      CONNECTED TO MODEL TEST_TRANS       PACKAGE RCHA             ON UNIT   1018 AT TIME STEP      7, STRESS PERIOD     31
 UBDSV06 SAVING              CHD IN MODEL TEST_TRANS       PACKAGE TEST_TRANS      CONNECTED TO MODEL TEST_TRANS       PACKAGE CHD              ON UNIT   1018 AT TIME STEP      7, STRESS PERIOD     31

 HEAD WILL BE SAVED ON UNIT 1019 AT END OF TIME STEP    7, STRESS PERIOD   31
 UBDSV1 SAVING           STO-SS ON UNIT   1018 AT TIME STEP      8, STRESS PERIOD     31
 UBDSV1 SAVING           STO-SY ON UNIT   1018 AT TIME STEP      8, STRESS PERIOD     31
 UBDSV1 SAVING     FLOW-JA-FACE ON UNIT   1018 AT TIME STEP      8, STRESS PERIOD     31
 UBDSV06 SAVING              RCH IN MODEL TEST_TRANS       PACKAGE TEST_TRANS      CONNECTED TO MODEL TEST_TRANS       PACKAGE RCHA             ON UNIT   1018 AT TIME STEP      8, STRESS PERIOD     31
 UBDSV06 SAVING              CHD IN MODEL TEST_TRANS       PACKAGE TEST_TRANS      CONNECTED TO MODEL TEST_TRANS       PACKAGE CHD              ON UNIT   1018 AT TIME STEP      8, STRESS PERIOD     31

 HEAD WILL BE SAVED ON UNIT 1019 AT END OF TIME STEP    8, STRESS PERIOD   31
 UBDSV1 SAVING           STO-SS ON UNIT   1018 AT TIME STEP      9, STRESS PERIOD     31
 UBDSV1 SAVING           STO-SY ON UNIT   1018 AT TIME STEP      9, STRESS PERIOD     31
 UBDSV1 SAVING     FLOW-JA-FACE ON UNIT   1018 AT TIME STEP      9, STRESS PERIOD     31
 UBDSV06 SAVING              RCH IN MODEL TEST_TRANS       PACKAGE TEST_TRANS      CONNECTED TO MODEL TEST_TRANS       PACKAGE RCHA             ON UNIT   1018 AT TIME STEP      9, STRESS PERIOD     31
 UBDSV06 SAVING              CHD IN MODEL TEST_TRANS       PACKAGE TEST_TRANS      CONNECTED TO MODEL TEST_TRANS       PACKAGE CHD              ON UNIT   1018 AT TIME STEP      9, STRESS PERIOD     31

 HEAD WILL BE SAVED ON UNIT 1019 AT END OF TIME STEP    9, STRESS PERIOD   31
 UBDSV1 SAVING           STO-SS ON UNIT   1018 AT TIME STEP     10, STRESS PERIOD     31
 UBDSV1 SAVING           STO-SY ON UNIT   1018 AT TIME STEP     10, STRESS PERIOD     31
 UBDSV1 SAVING     FLOW-JA-FACE ON UNIT   1018 AT TIME STEP     10, STRESS PERIOD     31
 UBDSV06 SAVING              RCH IN MODEL TEST_TRANS       PACKAGE TEST_TRANS      CONNECTED TO MODEL TEST_TRANS       PACKAGE RCHA             ON UNIT   1018 AT TIME STEP     10, STRESS PERIOD     31
 UBDSV06 SAVING              CHD IN MODEL TEST_TRANS       PACKAGE TEST_TRANS      CONNECTED TO MODEL TEST_TRANS       PACKAGE CHD              ON UNIT   1018 AT TIME STEP     10, STRESS PERIOD     31
1
  HEAD IN LAYER   1 AT END OF TIME STEP  10 IN STRESS PERIOD   31
  ---------------------------------------------------------------------------

                1               2               3               4               5               6               7               8               9              10
               11              12              13              14              15              16              17              18              19              20
               21              22              23              24              25              26              27              28              29              30
 ................................................................................................................................................................
   1      27.5267         27.5231         27.5160         27.5055         27.4914         27.4739         27.4531         27.4291         27.4020         27.3719    
          27.3389         27.3034         27.2654         27.2252         27.1831         27.1393         27.0942         27.0480         27.0011         26.9538    
          26.9063         26.8588         26.8115         26.7645         26.7177         26.6710         26.6241         26.5766         26.5279         26.4774    
   2      27.5267         27.5231         27.5160         27.5055         27.4914         27.4739         27.4531         27.4291         27.4020         27.3719    
          27.3389         27.3034         27.2654         27.2252         27.1831         27.1393         27.0942         27.0480         27.0011         26.9538    
          26.9063         26.8588         26.8115         26.7645         26.7177         26.6710         26.6241         26.5766         26.5279         26.4774    
   3      27.5267         27.5231         27.5160         27.5055         27.4914         27.4739         27.4531         27.4291         27.4020         27.3719    
          27.3389         27.3034         27.2654         27.2252         27.1831         27.1393         27.0942         27.0480         27.0011         26.9538    
          26.9063         26.8588         26.8115         26.7645         26.7177         26.6710         26.6241         26.5766         26.5279         26.4774    
   4      27.5267         27.5231         27.5160         27.5055         27.4914         27.4739         27.4531         27.4291         27.4020         27.3719    
          27.3389         27.3034         27.2654         27.2252         27.1831         27.1393         27.0942         27.0480         27.0011         26.9538    
          26.9063         26.8588         26.8115         26.7645         26.7177         26.6710         26.6241         26.5766         26.5279         26.4774    
   5      27.5267         27.5231         27.5160         27.5055         27.4914         27.4739         27.4531         27.4291         27.4020         27.3719    
          27.3389         27.3034         27.2654         27.2252         27.1831         27.1393         27.0942         27.0480         27.0011         26.9538    
          26.9063         26.8588         26.8115         26.7645         26.7177         26.6710         26.6241         26.5766         26.5279         26.4774    
   6      27.5267         27.5231         27.5160         27.5055         27.4914         27.4739         27.4531         27.4291         27.4020         27.3719    
          27.3389         27.3034         27.2654         27.2252         27.1831         27.1393         27.0942         27.0480         27.0011         26.9538    
          26.9063         26.8588         26.8115         26.7645         26.7177         26.6710         26.6241         26.5766         26.5279         26.4774    
   7      27.5267         27.5231         27.5161         27.5055         27.4914         27.4739         27.4531         27.4291         27.4020         27.3719    
          27.3389         27.3034         27.2654         27.2252         27.1831         27.1393         27.0942         27.0480         27.0011         26.9538    
          26.9063         26.8588         26.8115         26.7645         26.7177         26.6710         26.6241         26.5766         26.5279         26.4774    
   8      27.5267         27.5231         27.5161         27.5055         27.4914         27.4739         27.4532         27.4291         27.4020         27.3719    
          27.3389         27.3034         27.2654         27.2252         27.1831         27.1393         27.0942         27.0480         27.0011         26.9538    
          26.9063         26.8588         26.8115         26.7645         26.7177         26.6710         26.6241         26.5766         26.5279         26.4774    
   9      27.5267         27.5231         27.5161         27.5055         27.4914         27.4739         27.4532         27.4291         27.4020         27.3719    
          27.3389         27.3034         27.2654         27.2252         27.1831         27.1393         27.0942         27.0480         27.0011         26.9538    
          26.9063         26.8588         26.8115         26.7645         26.7177         26.6710         26.6241         26.5766         26.5279         26.4774    
  10      27.5267         27.5231         27.5161         27.5055         27.4914         27.4739         27.4532         27.4291         27.4020         27.3719    
          27.3389         27.3034         27.2654         27.2252         27.1831         27.1393         27.0942         27.0480         27.0011         26.9538    
          26.9063         26.8588         26.8115         26.7645         26.7177         26.6710         26.6241         26.5766         26.5279         26.4774    
  11      27.5267         27.5231         27.5161         27.5055         27.4914         27.4739         27.4532         27.4291         27.4020         27.3719    
          27.3389         27.3034         27.2654         27.2252         27.1831         27.1393         27.0942         27.0480         27.0011         26.9538    
          26.9063         26.8588         26.8115         26.7645         26.7177         26.6710         26.6241         26.5766         26.5279         26.4774    
  12      27.5267         27.5231         27.5161         27.5055         27.4914         27.4739         27.4532         27.4291         27.4020         27.3719    
          27.3389         27.3034         27.2654         27.2252         27.1831         27.1393         27.0942         27.0480         27.0011         26.9538    
          26.9063         26.8588         26.8115         26.7645         26.7177         26.6710         26.6241         26.5766         26.5279         26.4774    
  13      27.5267         27.5231         27.5161         27.5055         27.4914         27.4739         27.4532         27.4291         27.4020         27.3719    
          27.3390         27.3034         27.2654         27.2252         27.1831         27.1393         27.0942         27.0480         27.0011         26.9538    
          26.9063         26.8588         26.8115         26.7645         26.7177         26.6710         26.6241         26.5766         26.5279         26.4774    
  14      27.5267         27.5231         27.5161         27.5055         27.4914         27.4739         27.4532         27.4291         27.4020         27.3719    
          27.3390         27.3034         27.2654         27.2252         27.1831         27.1393         27.0942         27.0480         27.0011         26.9538    
          26.9063         26.8588         26.8115         26.7645         26.7177         26.6710         26.6241         26.5766         26.5279         26.4774    
  15      27.5267         27.5231         27.5161         27.5055         27.4914         27.4739         27.4532         27.4291         27.4020         27.3719    
          27.3390         27.3034         27.2654         27.2252         27.1831         27.1393         27.0942         27.0480         27.0011         26.9538    
          26.9063         26.8588         26.8115         26.7645         26.7177         26.6710         26.6241         26.5766         26.5279         26.4774    
  16      27.5267         27.5231         27.5161         27.5055         27.4914         27.4739         27.4532         27.4291         27.4020         27.3719    
          27.3390         27.3034         27.2654         27.2252         27.1831         27.1393         27.0942         27.0480         27.0011         26.9538    
          26.9063         26.8588         26.8115         26.7645         26.7177         26.6710         26.6241         26.5766         26.5279         26.4774    
  17      27.5267         27.5231         27.5161         27.5055         27.4914         27.4739         27.4532         27.4291         27.4020         27.3719    
          27.3390         27.3034         27.2654         27.2252         27.1831         27.1393         27.0942         27.0480         27.0011         26.9538    
          26.9063         26.8588         26.8115         26.7645         26.7177         26.6710         26.6241         26.5766         26.5279         26.4774    
  18      27.5267         27.5231         27.5161         27.5055         27.4914         27.4739         27.4532         27.4291         27.4020         27.3719    
          27.3390         27.3034         27.2654         27.2252         27.1831         27.1393         27.0942         27.0480         27.0011         26.9538    
          26.9063         26.8588         26.8115         26.7645         26.7177         26.6710         26.6241         26.5766         26.5279         26.4774    
  19      27.5267         27.5231         27.5161         27.5055         27.4914         27.4739         27.4532         27.4291         27.4020         27.3719    
          27.3390         27.3034         27.2654         27.2252         27.1831         27.1393         27.0942         27.0480         27.0011         26.9538    
          26.9063         26.8588         26.8115         26.7645         26.7177         26.6710         26.6241         26.5766         26.5279         26.4774    
  20      27.5267         27.5231         27.5161         27.5055         27.4914         27.4739         27.4532         27.4291         27.4020         27.3719    
          27.3390         27.3034         27.2654         27.2252         27.1831         27.1393         27.0942         27.0481         27.0011         26.9538    
          26.9063         26.8588         26.8115         26.7645         26.7177         26.6710         26.6241         26.5766         26.5279         26.4774    
  21      27.5267         27.5231         27.5161         27.5055         27.4914         27.4739         27.4532         27.4291         27.4020         27.3719    
          27.3390         27.3034         27.2654         27.2252         27.1831         27.1393         27.0942         27.0481         27.0011         26.9538    
          26.9063         26.8588         26.8115         26.7645         26.7177         26.6710         26.6241         26.5766         26.5279         26.4774    
  22      27.5267         27.5231         27.5161         27.5055         27.4914         27.4739         27.4532         27.4291         27.4020         27.3719    
          27.3390         27.3034         27.2654         27.2252         27.1831         27.1393         27.0942         27.0481         27.0011         26.9538    
          26.9063         26.8588         26.8115         26.7645         26.7177         26.6710         26.6241         26.5766         26.5279         26.4774    
  23      27.5267         27.5231         27.5161         27.5055         27.4914         27.4739         27.4532         27.4291         27.4020         27.3719    
          27.3390         27.3034         27.2654         27.2252         27.1831         27.1393         27.0942         27.0481         27.0011         26.9538    
          26.9063         26.8588         26.8115         26.7645         26.7177         26.6710         26.6241         26.5766         26.5279         26.4774    
  24      27.5267         27.5231         27.5161         27.5055         27.4914         27.4739         27.4532         27.4291         27.4020         27.3719    
          27.3390         27.3034         27.2654         27.2252         27.1831         27.1393         27.0942         27.0481         27.0011         26.9538    
          26.9063         26.8588         26.8115         26.7645         26.7177         26.6710         26.6241         26.5766         26.5279         26.4774    
  25      27.5267         27.5231         27.5161         27.5055         27.4914         27.4739         27.4532         27.4291         27.4020         27.3719    
          27.3390         27.3034         27.2654         27.2252         27.1831         27.1393         27.0942         27.0481         27.0011         26.9538    
          26.9063         26.8588         26.8115         26.7645         26.7177         26.6710         26.6241         26.5766         26.5279         26.4774    
  26      27.5267         27.5231         27.5161         27.5055         27.4914         27.4739         27.4532         27.4291         27.4020         27.3719    
          27.3390         27.3034         27.2654         27.2252         27.1831         27.1393         27.0942         27.0481         27.0011         26.9538    
          26.9063         26.8588         26.8115         26.7645         26.7177         26.6710         26.6241         26.5766         26.5279         26.4774    
  27      27.5267         27.5231         27.5161         27.5055         27.4914         27.4739         27.4532         27.4291         27.4020         27.3719    
          27.3390         27.3034         27.2654         27.2252         27.1831         27.1393         27.0942         27.0481         27.0011         26.9538    
          26.9063         26.8588         26.8115         26.7645         26.7177         26.6710         26.6241         26.5766         26.5279         26.4774    
  28      27.5267         27.5231         27.5161         27.5055         27.4914         27.4739         27.4532         27.4291         27.4020         27.3719    
          27.3390         27.3034         27.2654         27.2252         27.1831         27.1393         27.0942         27.0481         27.0011         26.9538    
          26.9063         26.8588         26.8115         26.7645         26.7177         26.6710         26.6241         26.5766         26.5279         26.4774    
  29      27.5267         27.5231         27.5161         27.5055         27.4914         27.4739         27.4532         27.4291         27.4020         27.3719    
          27.3390         27.3034         27.2654         27.2252         27.1831         27.1393         27.0942         27.0481         27.0011         26.9538    
          26.9063         26.8588         26.8115         26.7645         26.7177         26.6710         26.6241         26.5766         26.5279         26.4774    
  30      27.5267         27.5231         27.5161         27.5055         27.4914         27.4739         27.4532         27.4291         27.4020         27.3719    
          27.3390         27.3034         27.2654         27.2252         27.1831         27.1393         27.0942         27.0481         27.0011         26.9538    
          26.9063         26.8588         26.8115         26.7645         26.7177         26.6710         26.6241         26.5766         26.5279         26.4774    

 HEAD WILL BE SAVED ON UNIT 1019 AT END OF TIME STEP   10, STRESS PERIOD   31


  VOLUME BUDGET FOR ENTIRE MODEL AT END OF TIME STEP   10, STRESS PERIOD  31
  ---------------------------------------------------------------------------------------------------

     CUMULATIVE VOLUME      L**3       RATES FOR THIS TIME STEP      L**3/T          PACKAGE NAME    
     ------------------                 ------------------------                     ----------------

           IN:                                      IN:
           ---                                      ---
              STO-SS =          49.3923                STO-SS =       3.6473E-02     STORAGE         
              STO-SY =       31643.0405                STO-SY =          22.8401     STORAGE         
                 RCH =      145754.8585                   RCH =          47.6712     RCHA            
                 CHD =        2029.0190                   CHD =           0.0000     CHD             

            TOTAL IN =      179476.3102              TOTAL IN =          70.5478

          OUT:                                     OUT:
          ----                                     ----
              STO-SS =          42.5746                STO-SS =       3.7760E-02     STORAGE         
              STO-SY =       27837.1240                STO-SY =          24.6302     STORAGE         
                 RCH =           0.0000                   RCH =           0.0000     RCHA            
                 CHD =      151596.1394                   CHD =          45.8816     CHD             

           TOTAL OUT =      179475.8380             TOTAL OUT =          70.5496

            IN - OUT =           0.4722              IN - OUT =      -1.8548E-03

 PERCENT DISCREPANCY =           0.00     PERCENT DISCREPANCY =          -0.00




         TIME SUMMARY AT END OF TIME STEP   10 IN STRESS PERIOD   31
                    SECONDS     MINUTES      HOURS       DAYS        YEARS
                    -----------------------------------------------------------
   TIME STEP LENGTH 2.59200E+05  4320.0      72.000      3.0000     8.21355E-03
 STRESS PERIOD TIME 2.59200E+06  43200.      720.00      30.000     8.21355E-02
         TOTAL TIME 7.78464E+07 1.29744E+06  21624.      901.00      2.4668    

 OUTPUT CONTROL FOR STRESS PERIOD 32 IS REPEATED USING SETTINGS FROM A PREVIOUS STRESS PERIOD.


 STRESS PERIOD 32 IS TRANSIENT


                 RECHARGE =  0.1095890E-02
 UBDSV1 SAVING           STO-SS ON UNIT   1018 AT TIME STEP      1, STRESS PERIOD     32
 UBDSV1 SAVING           STO-SY ON UNIT   1018 AT TIME STEP      1, STRESS PERIOD     32
 UBDSV1 SAVING     FLOW-JA-FACE ON UNIT   1018 AT TIME STEP      1, STRESS PERIOD     32
 UBDSV06 SAVING              RCH IN MODEL TEST_TRANS       PACKAGE TEST_TRANS      CONNECTED TO MODEL TEST_TRANS       PACKAGE RCHA             ON UNIT   1018 AT TIME STEP      1, STRESS PERIOD     32
 UBDSV06 SAVING              CHD IN MODEL TEST_TRANS       PACKAGE TEST_TRANS      CONNECTED TO MODEL TEST_TRANS       PACKAGE CHD              ON UNIT   1018 AT TIME STEP      1, STRESS PERIOD     32
1
  HEAD IN LAYER   1 AT END OF TIME STEP   1 IN STRESS PERIOD   32
  ---------------------------------------------------------------------------

                1               2               3               4               5               6               7               8               9              10
               11              12              13              14              15              16              17              18              19              20
               21              22              23              24              25              26              27              28              29              30
 ................................................................................................................................................................
   1      27.5231         27.5197         27.5128         27.5026         27.4891         27.4723         27.4523         27.4292         27.4031         27.3741    
          27.3424         27.3082         27.2716         27.2328         27.1920         27.1494         27.1052         27.0595         27.0122         26.9634    
          26.9126         26.8592         26.8017         26.7379         26.6640         26.5734         26.4550         26.2890         26.0376         25.6157    
   2      27.5231         27.5197         27.5128         27.5026         27.4891         27.4723         27.4523         27.4292         27.4031         27.3741    
          27.3424         27.3082         27.2716         27.2328         27.1920         27.1494         27.1052         27.0595         27.0122         26.9634    
          26.9126         26.8592         26.8017         26.7379         26.6640         26.5734         26.4550         26.2890         26.0375         25.6157    
   3      27.5231         27.5197         27.5128         27.5026         27.4891         27.4723         27.4523         27.4292         27.4031         27.3741    
          27.3424         27.3082         27.2716         27.2328         27.1920         27.1494         27.1052         27.0595         27.0122         26.9634    
          26.9126         26.8592         26.8017         26.7379         26.6640         26.5734         26.4550         26.2890         26.0375         25.6157    
   4      27.5231         27.5197         27.5128         27.5026         27.4891         27.4723         27.4523         27.4292         27.4031         27.3741    
          27.3424         27.3082         27.2716         27.2328         27.1920         27.1494         27.1052         27.0595         27.0122         26.9634    
          26.9126         26.8592         26.8017         26.7379         26.6640         26.5734         26.4550         26.2890         26.0375         25.6157    
   5      27.5231         27.5197         27.5128         27.5026         27.4891         27.4723         27.4523         27.4292         27.4031         27.3741    
          27.3424         27.3082         27.2716         27.2328         27.1920         27.1494         27.1052         27.0595         27.0122         26.9634    
          26.9126         26.8592         26.8017         26.7379         26.6640         26.5734         26.4550         26.2890         26.0375         25.6157    
   6      27.5231         27.5197         27.5128         27.5026         27.4891         27.4723         27.4523         27.4292         27.4031         27.3741    
          27.3424         27.3082         27.2716         27.2328         27.1920         27.1494         27.1052         27.0595         27.0122         26.9634    
          26.9126         26.8592         26.8017         26.7379         26.6640         26.5734         26.4550         26.2890         26.0375         25.6157    
   7      27.5231         27.5197         27.5128         27.5026         27.4891         27.4723         27.4523         27.4292         27.4031         27.3741    
          27.3424         27.3082         27.2716         27.2328         27.1920         27.1494         27.1052         27.0595         27.0122         26.9634    
          26.9126         26.8592         26.8017         26.7379         26.6640         26.5734         26.4550         26.2890         26.0375         25.6157    
   8      27.5231         27.5197         27.5128         27.5026         27.4891         27.4723         27.4523         27.4292         27.4031         27.3741    
          27.3424         27.3082         27.2716         27.2328         27.1920         27.1494         27.1052         27.0595         27.0122         26.9634    
          26.9126         26.8592         26.8017         26.7379         26.6640         26.5734         26.4550         26.2890         26.0375         25.6157    
   9      27.5231         27.5197         27.5128         27.5026         27.4891         27.4723         27.4523         27.4292         27.4031         27.3741    
          27.3424         27.3082         27.2716         27.2328         27.1920         27.1494         27.1052         27.0595         27.0122         26.9634    
          26.9126         26.8592         26.8017         26.7379         26.6640         26.5734         26.4550         26.2890         26.0375         25.6157    
  10      27.5231         27.5197         27.5128         27.5026         27.4891         27.4723         27.4523         27.4292         27.4031         27.3741    
          27.3424         27.3082         27.2716         27.2328         27.1920         27.1494         27.1052         27.0595         27.0122         26.9634    
          26.9126         26.8592         26.8017         26.7379         26.6640         26.5734         26.4550         26.2890         26.0375         25.6157    
  11      27.5231         27.5197         27.5128         27.5026         27.4891         27.4723         27.4523         27.4292         27.4031         27.3741    
          27.3424         27.3082         27.2716         27.2328         27.1920         27.1494         27.1052         27.0595         27.0122         26.9634    
          26.9126         26.8592         26.8017         26.7379         26.6640         26.5734         26.4550         26.2890         26.0375         25.6157    
  12      27.5231         27.5197         27.5128         27.5026         27.4891         27.4723         27.4523         27.4292         27.4031         27.3741    
          27.3424         27.3082         27.2716         27.2328         27.1920         27.1494         27.1052         27.0595         27.0122         26.9634    
          26.9126         26.8592         26.8017         26.7379         26.6640         26.5734         26.4550         26.2890         26.0375         25.6157    
  13      27.5231         27.5197         27.5128         27.5026         27.4891         27.4723         27.4523         27.4292         27.4031         27.3741    
          27.3424         27.3082         27.2716         27.2328         27.1920         27.1494         27.1052         27.0595         27.0122         26.9634    
          26.9126         26.8592         26.8017         26.7379         26.6640         26.5734         26.4550         26.2890         26.0375         25.6157    
  14      27.5231         27.5197         27.5128         27.5026         27.4891         27.4723         27.4523         27.4292         27.4031         27.3741    
          27.3424         27.3082         27.2716         27.2328         27.1920         27.1494         27.1052         27.0595         27.0122         26.9634    
          26.9126         26.8592         26.8017         26.7379         26.6640         26.5734         26.4550         26.2890         26.0375         25.6157    
  15      27.5231         27.5197         27.5128         27.5026         27.4891         27.4723         27.4523         27.4292         27.4031         27.3741    
          27.3424         27.3082         27.2716         27.2328         27.1920         27.1494         27.1052         27.0595         27.0122         26.9634    
          26.9126         26.8592         26.8017         26.7379         26.6640         26.5734         26.4550         26.2890         26.0375         25.6157    
  16      27.5231         27.5197         27.5128         27.5026         27.4891         27.4723         27.4523         27.4292         27.4031         27.3741    
          27.3424         27.3082         27.2716         27.2328         27.1920         27.1494         27.1052         27.0595         27.0122         26.9634    
          26.9126         26.8592         26.8017         26.7379         26.6640         26.5734         26.4550         26.2890         26.0375         25.6157    
  17      27.5231         27.5197         27.5128         27.5026         27.4891         27.4723         27.4523         27.4292         27.4031         27.3741    
          27.3424         27.3082         27.2716         27.2328         27.1920         27.1494         27.1052         27.0595         27.0122         26.9634    
          26.9126         26.8592         26.8017         26.7379         26.6640         26.5734         26.4550         26.2890         26.0375         25.6157    
  18      27.5231         27.5197         27.5128         27.5026         27.4891         27.4723         27.4523         27.4292         27.4031         27.3741    
          27.3424         27.3082         27.2716         27.2328         27.1920         27.1494         27.1052         27.0595         27.0122         26.9634    
          26.9126         26.8592         26.8017         26.7379         26.6640         26.5734         26.4550         26.2890         26.0375         25.6157    
  19      27.5231         27.5197         27.5128         27.5026         27.4891         27.4723         27.4523         27.4292         27.4031         27.3741    
          27.3424         27.3082         27.2716         27.2328         27.1920         27.1494         27.1052         27.0595         27.0122         26.9634    
          26.9126         26.8592         26.8017         26.7379         26.6640         26.5734         26.4550         26.2890         26.0375         25.6157    
  20      27.5231         27.5197         27.5128         27.5026         27.4891         27.4723         27.4523         27.4292         27.4031         27.3741    
          27.3424         27.3082         27.2716         27.2328         27.1920         27.1494         27.1052         27.0595         27.0122         26.9634    
          26.9126         26.8592         26.8017         26.7379         26.6640         26.5734         26.4550         26.2890         26.0375         25.6157    
  21      27.5231         27.5197         27.5128         27.5026         27.4891         27.4723         27.4523         27.4292         27.4031         27.3741    
          27.3424         27.3082         27.2716         27.2328         27.1920         27.1494         27.1052         27.0595         27.0122         26.9634    
          26.9126         26.8592         26.8017         26.7379         26.6640         26.5734         26.4550         26.2890         26.0375         25.6157    
  22      27.5231         27.5197         27.5128         27.5026         27.4891         27.4723         27.4523         27.4292         27.4031         27.3741    
          27.3424         27.3082         27.2716         27.2328         27.1920         27.1494         27.1052         27.0595         27.0122         26.9634    
          26.9126         26.8592         26.8017         26.7379         26.6640         26.5734         26.4550         26.2890         26.0375         25.6157    
  23      27.5231         27.5197         27.5128         27.5026         27.4891         27.4723         27.4523         27.4292         27.4031         27.3741    
          27.3424         27.3082         27.2716         27.2328         27.1920         27.1494         27.1052         27.0595         27.0122         26.9634    
          26.9126         26.8592         26.8017         26.7379         26.6640         26.5734         26.4550         26.2890         26.0375         25.6157    
  24      27.5231         27.5197         27.5128         27.5026         27.4891         27.4723         27.4523         27.4292         27.4031         27.3741    
          27.3424         27.3082         27.2716         27.2328         27.1920         27.1494         27.1052         27.0595         27.0122         26.9634    
          26.9126         26.8592         26.8017         26.7379         26.6640         26.5734         26.4550         26.2890         26.0375         25.6157    
  25      27.5231         27.5197         27.5128         27.5026         27.4891         27.4723         27.4523         27.4292         27.4031         27.3741    
          27.3424         27.3082         27.2716         27.2328         27.1920         27.1494         27.1052         27.0595         27.0122         26.9634    
          26.9126         26.8592         26.8017         26.7379         26.6640         26.5734         26.4550         26.2890         26.0375         25.6157    
  26      27.5231         27.5197         27.5128         27.5026         27.4891         27.4723         27.4523         27.4292         27.4031         27.3741    
          27.3424         27.3082         27.2716         27.2328         27.1920         27.1494         27.1052         27.0595         27.0122         26.9634    
          26.9126         26.8592         26.8017         26.7379         26.6640         26.5734         26.4550         26.2890         26.0375         25.6157    
  27      27.5231         27.5197         27.5128         27.5026         27.4891         27.4723         27.4523         27.4292         27.4031         27.3741    
          27.3424         27.3082         27.2716         27.2328         27.1920         27.1494         27.1052         27.0595         27.0122         26.9634    
          26.9126         26.8592         26.8017         26.7379         26.6640         26.5734         26.4550         26.2890         26.0375         25.6157    
  28      27.5231         27.5197         27.5128         27.5026         27.4891         27.4723         27.4523         27.4292         27.4031         27.3741    
          27.3424         27.3082         27.2716         27.2328         27.1920         27.1494         27.1052         27.0595         27.0122         26.9634    
          26.9126         26.8592         26.8017         26.7379         26.6640         26.5734         26.4550         26.2890         26.0375         25.6157    
  29      27.5231         27.5197         27.5128         27.5026         27.4891         27.4723         27.4523         27.4292         27.4031         27.3741    
          27.3424         27.3082         27.2716         27.2328         27.1920         27.1494         27.1052         27.0595         27.0122         26.9634    
          26.9126         26.8592         26.8017         26.7379         26.6640         26.5734         26.4550         26.2890         26.0375         25.6157    
  30      27.5231         27.5197         27.5128         27.5026         27.4891         27.4723         27.4523         27.4292         27.4031         27.3741    
          27.3424         27.3082         27.2716         27.2328         27.1920         27.1494         27.1052         27.0595         27.0122         26.9634    
          26.9126         26.8592         26.8017         26.7379         26.6640         26.5734         26.4550         26.2890         26.0375         25.6157    

 HEAD WILL BE SAVED ON UNIT 1019 AT END OF TIME STEP    1, STRESS PERIOD   32



         TIME SUMMARY AT END OF TIME STEP    1 IN STRESS PERIOD   32
                    SECONDS     MINUTES      HOURS       DAYS        YEARS
                    -----------------------------------------------------------
   TIME STEP LENGTH 2.59200E+05  4320.0      72.000      3.0000     8.21355E-03
 STRESS PERIOD TIME 2.59200E+05  4320.0      72.000      3.0000     8.21355E-03
         TOTAL TIME 7.81056E+07 1.30176E+06  21696.      904.00      2.4750    
 UBDSV1 SAVING           STO-SS ON UNIT   1018 AT TIME STEP      2, STRESS PERIOD     32
 UBDSV1 SAVING           STO-SY ON UNIT   1018 AT TIME STEP      2, STRESS PERIOD     32
 UBDSV1 SAVING     FLOW-JA-FACE ON UNIT   1018 AT TIME STEP      2, STRESS PERIOD     32
 UBDSV06 SAVING              RCH IN MODEL TEST_TRANS       PACKAGE TEST_TRANS      CONNECTED TO MODEL TEST_TRANS       PACKAGE RCHA             ON UNIT   1018 AT TIME STEP      2, STRESS PERIOD     32
 UBDSV06 SAVING              CHD IN MODEL TEST_TRANS       PACKAGE TEST_TRANS      CONNECTED TO MODEL TEST_TRANS       PACKAGE CHD              ON UNIT   1018 AT TIME STEP      2, STRESS PERIOD     32

 HEAD WILL BE SAVED ON UNIT 1019 AT END OF TIME STEP    2, STRESS PERIOD   32
 UBDSV1 SAVING           STO-SS ON UNIT   1018 AT TIME STEP      3, STRESS PERIOD     32
 UBDSV1 SAVING           STO-SY ON UNIT   1018 AT TIME STEP      3, STRESS PERIOD     32
 UBDSV1 SAVING     FLOW-JA-FACE ON UNIT   1018 AT TIME STEP      3, STRESS PERIOD     32
 UBDSV06 SAVING              RCH IN MODEL TEST_TRANS       PACKAGE TEST_TRANS      CONNECTED TO MODEL TEST_TRANS       PACKAGE RCHA             ON UNIT   1018 AT TIME STEP      3, STRESS PERIOD     32
 UBDSV06 SAVING              CHD IN MODEL TEST_TRANS       PACKAGE TEST_TRANS      CONNECTED TO MODEL TEST_TRANS       PACKAGE CHD              ON UNIT   1018 AT TIME STEP      3, STRESS PERIOD     32

 HEAD WILL BE SAVED ON UNIT 1019 AT END OF TIME STEP    3, STRESS PERIOD   32
 UBDSV1 SAVING           STO-SS ON UNIT   1018 AT TIME STEP      4, STRESS PERIOD     32
 UBDSV1 SAVING           STO-SY ON UNIT   1018 AT TIME STEP      4, STRESS PERIOD     32
 UBDSV1 SAVING     FLOW-JA-FACE ON UNIT   1018 AT TIME STEP      4, STRESS PERIOD     32
 UBDSV06 SAVING              RCH IN MODEL TEST_TRANS       PACKAGE TEST_TRANS      CONNECTED TO MODEL TEST_TRANS       PACKAGE RCHA             ON UNIT   1018 AT TIME STEP      4, STRESS PERIOD     32
 UBDSV06 SAVING              CHD IN MODEL TEST_TRANS       PACKAGE TEST_TRANS      CONNECTED TO MODEL TEST_TRANS       PACKAGE CHD              ON UNIT   1018 AT TIME STEP      4, STRESS PERIOD     32

 HEAD WILL BE SAVED ON UNIT 1019 AT END OF TIME STEP    4, STRESS PERIOD   32
 UBDSV1 SAVING           STO-SS ON UNIT   1018 AT TIME STEP      5, STRESS PERIOD     32
 UBDSV1 SAVING           STO-SY ON UNIT   1018 AT TIME STEP      5, STRESS PERIOD     32
 UBDSV1 SAVING     FLOW-JA-FACE ON UNIT   1018 AT TIME STEP      5, STRESS PERIOD     32
 UBDSV06 SAVING              RCH IN MODEL TEST_TRANS       PACKAGE TEST_TRANS      CONNECTED TO MODEL TEST_TRANS       PACKAGE RCHA             ON UNIT   1018 AT TIME STEP      5, STRESS PERIOD     32
 UBDSV06 SAVING              CHD IN MODEL TEST_TRANS       PACKAGE TEST_TRANS      CONNECTED TO MODEL TEST_TRANS       PACKAGE CHD              ON UNIT   1018 AT TIME STEP      5, STRESS PERIOD     32

 HEAD WILL BE SAVED ON UNIT 1019 AT END OF TIME STEP    5, STRESS PERIOD   32
 UBDSV1 SAVING           STO-SS ON UNIT   1018 AT TIME STEP      6, STRESS PERIOD     32
 UBDSV1 SAVING           STO-SY ON UNIT   1018 AT TIME STEP      6, STRESS PERIOD     32
 UBDSV1 SAVING     FLOW-JA-FACE ON UNIT   1018 AT TIME STEP      6, STRESS PERIOD     32
 UBDSV06 SAVING              RCH IN MODEL TEST_TRANS       PACKAGE TEST_TRANS      CONNECTED TO MODEL TEST_TRANS       PACKAGE RCHA             ON UNIT   1018 AT TIME STEP      6, STRESS PERIOD     32
 UBDSV06 SAVING              CHD IN MODEL TEST_TRANS       PACKAGE TEST_TRANS      CONNECTED TO MODEL TEST_TRANS       PACKAGE CHD              ON UNIT   1018 AT TIME STEP      6, STRESS PERIOD     32

 HEAD WILL BE SAVED ON UNIT 1019 AT END OF TIME STEP    6, STRESS PERIOD   32
 UBDSV1 SAVING           STO-SS ON UNIT   1018 AT TIME STEP      7, STRESS PERIOD     32
 UBDSV1 SAVING           STO-SY ON UNIT   1018 AT TIME STEP      7, STRESS PERIOD     32
 UBDSV1 SAVING     FLOW-JA-FACE ON UNIT   1018 AT TIME STEP      7, STRESS PERIOD     32
 UBDSV06 SAVING              RCH IN MODEL TEST_TRANS       PACKAGE TEST_TRANS      CONNECTED TO MODEL TEST_TRANS       PACKAGE RCHA             ON UNIT   1018 AT TIME STEP      7, STRESS PERIOD     32
 UBDSV06 SAVING              CHD IN MODEL TEST_TRANS       PACKAGE TEST_TRANS      CONNECTED TO MODEL TEST_TRANS       PACKAGE CHD              ON UNIT   1018 AT TIME STEP      7, STRESS PERIOD     32

 HEAD WILL BE SAVED ON UNIT 1019 AT END OF TIME STEP    7, STRESS PERIOD   32
 UBDSV1 SAVING           STO-SS ON UNIT   1018 AT TIME STEP      8, STRESS PERIOD     32
 UBDSV1 SAVING           STO-SY ON UNIT   1018 AT TIME STEP      8, STRESS PERIOD     32
 UBDSV1 SAVING     FLOW-JA-FACE ON UNIT   1018 AT TIME STEP      8, STRESS PERIOD     32
 UBDSV06 SAVING              RCH IN MODEL TEST_TRANS       PACKAGE TEST_TRANS      CONNECTED TO MODEL TEST_TRANS       PACKAGE RCHA             ON UNIT   1018 AT TIME STEP      8, STRESS PERIOD     32
 UBDSV06 SAVING              CHD IN MODEL TEST_TRANS       PACKAGE TEST_TRANS      CONNECTED TO MODEL TEST_TRANS       PACKAGE CHD              ON UNIT   1018 AT TIME STEP      8, STRESS PERIOD     32

 HEAD WILL BE SAVED ON UNIT 1019 AT END OF TIME STEP    8, STRESS PERIOD   32
 UBDSV1 SAVING           STO-SS ON UNIT   1018 AT TIME STEP      9, STRESS PERIOD     32
 UBDSV1 SAVING           STO-SY ON UNIT   1018 AT TIME STEP      9, STRESS PERIOD     32
 UBDSV1 SAVING     FLOW-JA-FACE ON UNIT   1018 AT TIME STEP      9, STRESS PERIOD     32
 UBDSV06 SAVING              RCH IN MODEL TEST_TRANS       PACKAGE TEST_TRANS      CONNECTED TO MODEL TEST_TRANS       PACKAGE RCHA             ON UNIT   1018 AT TIME STEP      9, STRESS PERIOD     32
 UBDSV06 SAVING              CHD IN MODEL TEST_TRANS       PACKAGE TEST_TRANS      CONNECTED TO MODEL TEST_TRANS       PACKAGE CHD              ON UNIT   1018 AT TIME STEP      9, STRESS PERIOD     32

 HEAD WILL BE SAVED ON UNIT 1019 AT END OF TIME STEP    9, STRESS PERIOD   32
 UBDSV1 SAVING           STO-SS ON UNIT   1018 AT TIME STEP     10, STRESS PERIOD     32
 UBDSV1 SAVING           STO-SY ON UNIT   1018 AT TIME STEP     10, STRESS PERIOD     32
 UBDSV1 SAVING     FLOW-JA-FACE ON UNIT   1018 AT TIME STEP     10, STRESS PERIOD     32
 UBDSV06 SAVING              RCH IN MODEL TEST_TRANS       PACKAGE TEST_TRANS      CONNECTED TO MODEL TEST_TRANS       PACKAGE RCHA             ON UNIT   1018 AT TIME STEP     10, STRESS PERIOD     32
 UBDSV06 SAVING              CHD IN MODEL TEST_TRANS       PACKAGE TEST_TRANS      CONNECTED TO MODEL TEST_TRANS       PACKAGE CHD              ON UNIT   1018 AT TIME STEP     10, STRESS PERIOD     32
1
  HEAD IN LAYER   1 AT END OF TIME STEP  10 IN STRESS PERIOD   32
  ---------------------------------------------------------------------------

                1               2               3               4               5               6               7               8               9              10
               11              12              13              14              15              16              17              18              19              20
               21              22              23              24              25              26              27              28              29              30
 ................................................................................................................................................................
   1      27.5116         27.5086         27.5027         27.4939         27.4820         27.4671         27.4491         27.4280         27.4036         27.3759    
          27.3447         27.3098         27.2711         27.2283         27.1812         27.1294         27.0727         27.0106         26.9426         26.8682    
          26.7869         26.6981         26.6011         26.4951         26.3793         26.2529         26.1146         25.9634         25.7977         25.6157    
   2      27.5116         27.5086         27.5027         27.4939         27.4820         27.4671         27.4491         27.4280         27.4036         27.3759    
          27.3447         27.3098         27.2711         27.2283         27.1812         27.1294         27.0727         27.0106         26.9426         26.8682    
          26.7869         26.6981         26.6011         26.4951         26.3793         26.2529         26.1146         25.9634         25.7977         25.6157    
   3      27.5116         27.5086         27.5027         27.4939         27.4820         27.4671         27.4491         27.4280         27.4036         27.3759    
          27.3447         27.3098         27.2711         27.2283         27.1812         27.1294         27.0727         27.0106         26.9426         26.8682    
          26.7869         26.6981         26.6011         26.4951         26.3793         26.2529         26.1146         25.9634         25.7977         25.6157    
   4      27.5116         27.5086         27.5027         27.4939         27.4820         27.4671         27.4491         27.4280         27.4036         27.3759    
          27.3447         27.3098         27.2711         27.2283         27.1812         27.1294         27.0727         27.0106         26.9426         26.8682    
          26.7869         26.6981         26.6011         26.4951         26.3793         26.2529         26.1146         25.9634         25.7977         25.6157    
   5      27.5116         27.5086         27.5027         27.4939         27.4820         27.4671         27.4491         27.4280         27.4036         27.3759    
          27.3447         27.3098         27.2711         27.2283         27.1812         27.1294         27.0727         27.0106         26.9426         26.8682    
          26.7869         26.6981         26.6011         26.4951         26.3793         26.2529         26.1146         25.9634         25.7977         25.6157    
   6      27.5116         27.5086         27.5027         27.4939         27.4820         27.4671         27.4491         27.4280         27.4036         27.3759    
          27.3447         27.3098         27.2711         27.2283         27.1812         27.1294         27.0727         27.0106         26.9426         26.8682    
          26.7869         26.6981         26.6011         26.4951         26.3793         26.2529         26.1146         25.9634         25.7977         25.6157    
   7      27.5116         27.5086         27.5027         27.4939         27.4820         27.4671         27.4491         27.4280         27.4036         27.3759    
          27.3447         27.3098         27.2711         27.2283         27.1812         27.1294         27.0727         27.0106         26.9426         26.8682    
          26.7869         26.6981         26.6011         26.4951         26.3793         26.2529         26.1146         25.9634         25.7977         25.6157    
   8      27.5116         27.5086         27.5027         27.4939         27.4820         27.4671         27.4491         27.4280         27.4036         27.3759    
          27.3447         27.3098         27.2711         27.2283         27.1812         27.1294         27.0727         27.0106         26.9426         26.8682    
          26.7869         26.6981         26.6011         26.4951         26.3793         26.2529         26.1146         25.9634         25.7977         25.6157    
   9      27.5116         27.5086         27.5027         27.4939         27.4820         27.4671         27.4491         27.4280         27.4036         27.3759    
          27.3447         27.3098         27.2711         27.2283         27.1812         27.1294         27.0727         27.0106         26.9426         26.8682    
          26.7869         26.6981         26.6011         26.4951         26.3793         26.2529         26.1146         25.9634         25.7977         25.6157    
  10      27.5116         27.5086         27.5027         27.4939         27.4820         27.4671         27.4491         27.4280         27.4036         27.3759    
          27.3447         27.3098         27.2711         27.2283         27.1812         27.1294         27.0727         27.0106         26.9426         26.8682    
          26.7869         26.6981         26.6011         26.4951         26.3793         26.2529         26.1146         25.9634         25.7977         25.6157    
  11      27.5116         27.5086         27.5027         27.4939         27.4820         27.4671         27.4491         27.4280         27.4036         27.3759    
          27.3447         27.3098         27.2711         27.2283         27.1812         27.1294         27.0727         27.0106         26.9426         26.8682    
          26.7869         26.6981         26.6011         26.4951         26.3793         26.2529         26.1146         25.9634         25.7977         25.6157    
  12      27.5116         27.5086         27.5027         27.4939         27.4820         27.4671         27.4491         27.4280         27.4036         27.3759    
          27.3447         27.3098         27.2711         27.2283         27.1812         27.1294         27.0727         27.0106         26.9426         26.8682    
          26.7869         26.6981         26.6011         26.4951         26.3793         26.2529         26.1146         25.9634         25.7977         25.6157    
  13      27.5116         27.5086         27.5027         27.4939         27.4820         27.4671         27.4491         27.4280         27.4036         27.3759    
          27.3447         27.3098         27.2711         27.2283         27.1812         27.1294         27.0727         27.0106         26.9426         26.8682    
          26.7869         26.6981         26.6011         26.4951         26.3793         26.2529         26.1146         25.9634         25.7977         25.6157    
  14      27.5116         27.5086         27.5027         27.4939         27.4820         27.4671         27.4491         27.4280         27.4036         27.3759    
          27.3447         27.3098         27.2711         27.2283         27.1812         27.1294         27.0727         27.0106         26.9426         26.8682    
          26.7869         26.6981         26.6011         26.4951         26.3793         26.2529         26.1146         25.9634         25.7977         25.6157    
  15      27.5116         27.5086         27.5027         27.4939         27.4820         27.4671         27.4491         27.4280         27.4036         27.3759    
          27.3447         27.3098         27.2711         27.2283         27.1812         27.1294         27.0727         27.0106         26.9426         26.8682    
          26.7869         26.6981         26.6011         26.4951         26.3793         26.2529         26.1146         25.9634         25.7977         25.6157    
  16      27.5116         27.5086         27.5027         27.4939         27.4820         27.4671         27.4491         27.4280         27.4036         27.3759    
          27.3447         27.3098         27.2711         27.2283         27.1812         27.1294         27.0727         27.0106         26.9426         26.8682    
          26.7869         26.6981         26.6011         26.4951         26.3793         26.2529         26.1146         25.9634         25.7977         25.6157    
  17      27.5116         27.5086         27.5027         27.4939         27.4820         27.4671         27.4491         27.4280         27.4036         27.3759    
          27.3447         27.3098         27.2711         27.2283         27.1812         27.1294         27.0727         27.0106         26.9426         26.8682    
          26.7869         26.6981         26.6011         26.4951         26.3793         26.2529         26.1146         25.9634         25.7977         25.6157    
  18      27.5116         27.5086         27.5027         27.4939         27.4820         27.4671         27.4491         27.4280         27.4036         27.3759    
          27.3447         27.3098         27.2711         27.2283         27.1812         27.1294         27.0727         27.0106         26.9426         26.8682    
          26.7869         26.6981         26.6011         26.4951         26.3793         26.2529         26.1146         25.9634         25.7977         25.6157    
  19      27.5116         27.5086         27.5027         27.4939         27.4820         27.4671         27.4491         27.4280         27.4036         27.3759    
          27.3447         27.3098         27.2711         27.2283         27.1812         27.1294         27.0727         27.0106         26.9426         26.8682    
          26.7869         26.6981         26.6011         26.4951         26.3793         26.2529         26.1146         25.9634         25.7977         25.6157    
  20      27.5116         27.5086         27.5027         27.4939         27.4820         27.4671         27.4491         27.4280         27.4036         27.3759    
          27.3447         27.3098         27.2711         27.2283         27.1812         27.1294         27.0727         27.0106         26.9426         26.8682    
          26.7869         26.6981         26.6011         26.4951         26.3793         26.2529         26.1146         25.9634         25.7977         25.6157    
  21      27.5116         27.5086         27.5027         27.4939         27.4820         27.4671         27.4491         27.4280         27.4036         27.3759    
          27.3447         27.3098         27.2711         27.2283         27.1812         27.1294         27.0727         27.0106         26.9426         26.8682    
          26.7869         26.6981         26.6011         26.4951         26.3793         26.2529         26.1146         25.9634         25.7977         25.6157    
  22      27.5116         27.5086         27.5027         27.4939         27.4820         27.4671         27.4491         27.4280         27.4036         27.3759    
          27.3447         27.3098         27.2711         27.2283         27.1812         27.1294         27.0727         27.0106         26.9426         26.8682    
          26.7869         26.6981         26.6011         26.4951         26.3793         26.2529         26.1146         25.9634         25.7977         25.6157    
  23      27.5116         27.5086         27.5027         27.4939         27.4820         27.4671         27.4491         27.4280         27.4036         27.3759    
          27.3447         27.3098         27.2711         27.2283         27.1812         27.1294         27.0727         27.0106         26.9426         26.8682    
          26.7869         26.6981         26.6011         26.4951         26.3793         26.2529         26.1146         25.9634         25.7977         25.6157    
  24      27.5116         27.5086         27.5027         27.4939         27.4820         27.4671         27.4491         27.4280         27.4036         27.3759    
          27.3447         27.3098         27.2711         27.2283         27.1812         27.1294         27.0727         27.0106         26.9426         26.8682    
          26.7869         26.6981         26.6011         26.4951         26.3793         26.2529         26.1146         25.9634         25.7977         25.6157    
  25      27.5116         27.5086         27.5027         27.4939         27.4820         27.4671         27.4491         27.4280         27.4036         27.3759    
          27.3447         27.3098         27.2711         27.2283         27.1812         27.1294         27.0727         27.0106         26.9426         26.8682    
          26.7869         26.6981         26.6011         26.4951         26.3793         26.2529         26.1146         25.9634         25.7977         25.6157    
  26      27.5116         27.5086         27.5027         27.4939         27.4820         27.4671         27.4491         27.4280         27.4036         27.3759    
          27.3447         27.3098         27.2711         27.2283         27.1812         27.1294         27.0727         27.0106         26.9426         26.8682    
          26.7869         26.6981         26.6011         26.4951         26.3793         26.2529         26.1146         25.9634         25.7977         25.6157    
  27      27.5116         27.5086         27.5027         27.4939         27.4820         27.4671         27.4491         27.4280         27.4036         27.3759    
          27.3447         27.3098         27.2711         27.2283         27.1812         27.1294         27.0727         27.0106         26.9426         26.8682    
          26.7869         26.6981         26.6011         26.4951         26.3793         26.2529         26.1146         25.9634         25.7977         25.6157    
  28      27.5116         27.5086         27.5027         27.4939         27.4820         27.4671         27.4491         27.4280         27.4036         27.3759    
          27.3447         27.3098         27.2711         27.2283         27.1812         27.1294         27.0727         27.0106         26.9426         26.8682    
          26.7869         26.6981         26.6011         26.4951         26.3793         26.2529         26.1146         25.9634         25.7977         25.6157    
  29      27.5116         27.5086         27.5027         27.4939         27.4820         27.4671         27.4491         27.4280         27.4036         27.3759    
          27.3447         27.3098         27.2711         27.2283         27.1812         27.1294         27.0727         27.0106         26.9426         26.8682    
          26.7869         26.6981         26.6011         26.4951         26.3793         26.2529         26.1146         25.9634         25.7977         25.6157    
  30      27.5116         27.5086         27.5027         27.4939         27.4820         27.4671         27.4491         27.4280         27.4036         27.3759    
          27.3447         27.3098         27.2711         27.2283         27.1812         27.1294         27.0727         27.0106         26.9426         26.8682    
          26.7869         26.6981         26.6011         26.4951         26.3793         26.2529         26.1146         25.9634         25.7977         25.6157    

 HEAD WILL BE SAVED ON UNIT 1019 AT END OF TIME STEP   10, STRESS PERIOD   32


  VOLUME BUDGET FOR ENTIRE MODEL AT END OF TIME STEP   10, STRESS PERIOD  32
  ---------------------------------------------------------------------------------------------------

     CUMULATIVE VOLUME      L**3       RATES FOR THIS TIME STEP      L**3/T          PACKAGE NAME    
     ------------------                 ------------------------                     ----------------

           IN:                                      IN:
           ---                                      ---
              STO-SS =          52.8386                STO-SS =       4.9131E-02     STORAGE         
              STO-SY =       33940.5326                STO-SY =          32.2034     STORAGE         
                 RCH =      148615.1314                   RCH =          95.3424     RCHA            
                 CHD =        2029.0190                   CHD =           0.0000     CHD             

            TOTAL IN =      184637.5216              TOTAL IN =         127.5950

          OUT:                                     OUT:
          ----                                     ----
              STO-SS =          42.7586                STO-SS =           0.0000     STORAGE         
              STO-SY =       27954.4557                STO-SY =           0.0000     STORAGE         
                 RCH =           0.0000                   RCH =           0.0000     RCHA            
                 CHD =      156639.7435                   CHD =         127.5911     CHD             

           TOTAL OUT =      184636.9578             TOTAL OUT =         127.5911

            IN - OUT =           0.5638              IN - OUT =       3.8206E-03

 PERCENT DISCREPANCY =           0.00     PERCENT DISCREPANCY =           0.00




         TIME SUMMARY AT END OF TIME STEP   10 IN STRESS PERIOD   32
                    SECONDS     MINUTES      HOURS       DAYS        YEARS
                    -----------------------------------------------------------
   TIME STEP LENGTH 2.59200E+05  4320.0      72.000      3.0000     8.21355E-03
 STRESS PERIOD TIME 2.59200E+06  43200.      720.00      30.000     8.21355E-02
         TOTAL TIME 8.04384E+07 1.34064E+06  22344.      931.00      2.5489    

 OUTPUT CONTROL FOR STRESS PERIOD 33 IS REPEATED USING SETTINGS FROM A PREVIOUS STRESS PERIOD.


 STRESS PERIOD 33 IS TRANSIENT


                 RECHARGE =  0.1643840E-02
 UBDSV1 SAVING           STO-SS ON UNIT   1018 AT TIME STEP      1, STRESS PERIOD     33
 UBDSV1 SAVING           STO-SY ON UNIT   1018 AT TIME STEP      1, STRESS PERIOD     33
 UBDSV1 SAVING     FLOW-JA-FACE ON UNIT   1018 AT TIME STEP      1, STRESS PERIOD     33
 UBDSV06 SAVING              RCH IN MODEL TEST_TRANS       PACKAGE TEST_TRANS      CONNECTED TO MODEL TEST_TRANS       PACKAGE RCHA             ON UNIT   1018 AT TIME STEP      1, STRESS PERIOD     33
 UBDSV06 SAVING              CHD IN MODEL TEST_TRANS       PACKAGE TEST_TRANS      CONNECTED TO MODEL TEST_TRANS       PACKAGE CHD              ON UNIT   1018 AT TIME STEP      1, STRESS PERIOD     33
1
  HEAD IN LAYER   1 AT END OF TIME STEP   1 IN STRESS PERIOD   33
  ---------------------------------------------------------------------------

                1               2               3               4               5               6               7               8               9              10
               11              12              13              14              15              16              17              18              19              20
               21              22              23              24              25              26              27              28              29              30
 ................................................................................................................................................................
   1      27.5188         27.5159         27.5099         27.5010         27.4890         27.4739         27.4557         27.4343         27.4096         27.3814    
          27.3497         27.3143         27.2749         27.2314         27.1834         27.1307         27.0728         27.0094         26.9400         26.8638    
          26.7803         26.6882         26.5864         26.4728         26.3445         26.1968         26.0213         25.8024         25.5078         25.0550    
   2      27.5188         27.5159         27.5099         27.5010         27.4890         27.4739         27.4557         27.4343         27.4096         27.3814    
          27.3497         27.3143         27.2749         27.2314         27.1834         27.1307         27.0728         27.0094         26.9400         26.8638    
          26.7803         26.6882         26.5864         26.4728         26.3446         26.1968         26.0213         25.8024         25.5078         25.0550    
   3      27.5188         27.5159         27.5099         27.5010         27.4890         27.4739         27.4557         27.4343         27.4096         27.3814    
          27.3497         27.3143         27.2749         27.2314         27.1834         27.1307         27.0728         27.0094         26.9400         26.8638    
          26.7802         26.6882         26.5864         26.4728         26.3446         26.1968         26.0213         25.8024         25.5078         25.0550    
   4      27.5188         27.5159         27.5099         27.5010         27.4890         27.4739         27.4557         27.4343         27.4096         27.3814    
          27.3497         27.3143         27.2749         27.2314         27.1834         27.1307         27.0728         27.0094         26.9400         26.8638    
          26.7802         26.6882         26.5864         26.4728         26.3446         26.1968         26.0213         25.8024         25.5078         25.0550    
   5      27.5188         27.5159         27.5099         27.5010         27.4890         27.4739         27.4557         27.4343         27.4096         27.3814    
          27.3497         27.3143         27.2749         27.2314         27.1834         27.1307         27.0728         27.0094         26.9400         26.8638    
          26.7802         26.6882         26.5864         26.4728         26.3446         26.1968         26.0213         25.8024         25.5078         25.0550    
   6      27.5188         27.5159         27.5099         27.5010         27.4890         27.4739         27.4557         27.4343         27.4096         27.3814    
          27.3497         27.3143         27.2749         27.2314         27.1834         27.1307         27.0728         27.0094         26.9400         26.8638    
          26.7802         26.6882         26.5864         26.4728         26.3446         26.1968         26.0213         25.8024         25.5078         25.0550    
   7      27.5188         27.5159         27.5099         27.5010         27.4890         27.4739         27.4557         27.4343         27.4096         27.3814    
          27.3497         27.3143         27.2749         27.2314         27.1834         27.1307         27.0728         27.0094         26.9400         26.8638    
          26.7802         26.6882         26.5864         26.4728         26.3446         26.1968         26.0213         25.8024         25.5078         25.0550    
   8      27.5188         27.5159         27.5099         27.5010         27.4890         27.4739         27.4557         27.4343         27.4096         27.3814    
          27.3497         27.3143         27.2749         27.2314         27.1834         27.1307         27.0728         27.0094         26.9400         26.8638    
          26.7802         26.6882         26.5864         26.4728         26.3446         26.1968         26.0213         25.8024         25.5078         25.0550    
   9      27.5188         27.5159         27.5099         27.5010         27.4890         27.4739         27.4557         27.4343         27.4096         27.3814    
          27.3497         27.3143         27.2749         27.2314         27.1834         27.1307         27.0728         27.0094         26.9400         26.8638    
          26.7802         26.6882         26.5864         26.4728         26.3446         26.1968         26.0213         25.8024         25.5078         25.0550    
  10      27.5188         27.5159         27.5099         27.5010         27.4890         27.4739         27.4557         27.4343         27.4096         27.3814    
          27.3497         27.3143         27.2749         27.2314         27.1834         27.1307         27.0728         27.0094         26.9400         26.8638    
          26.7802         26.6882         26.5864         26.4728         26.3446         26.1968         26.0213         25.8024         25.5078         25.0550    
  11      27.5188         27.5159         27.5099         27.5010         27.4890         27.4739         27.4557         27.4343         27.4096         27.3814    
          27.3497         27.3143         27.2749         27.2314         27.1834         27.1307         27.0728         27.0094         26.9400         26.8638    
          26.7802         26.6882         26.5864         26.4728         26.3446         26.1968         26.0213         25.8024         25.5078         25.0550    
  12      27.5188         27.5159         27.5099         27.5010         27.4890         27.4739         27.4557         27.4343         27.4096         27.3814    
          27.3497         27.3143         27.2749         27.2314         27.1834         27.1307         27.0728         27.0094         26.9400         26.8638    
          26.7802         26.6882         26.5864         26.4728         26.3446         26.1968         26.0213         25.8024         25.5078         25.0550    
  13      27.5188         27.5159         27.5099         27.5010         27.4890         27.4739         27.4557         27.4343         27.4096         27.3814    
          27.3497         27.3143         27.2749         27.2314         27.1834         27.1307         27.0728         27.0094         26.9400         26.8638    
          26.7802         26.6882         26.5864         26.4728         26.3446         26.1968         26.0213         25.8024         25.5078         25.0550    
  14      27.5188         27.5159         27.5099         27.5010         27.4890         27.4739         27.4557         27.4343         27.4096         27.3814    
          27.3497         27.3143         27.2749         27.2314         27.1834         27.1307         27.0728         27.0094         26.9400         26.8638    
          26.7802         26.6882         26.5864         26.4728         26.3446         26.1968         26.0213         25.8024         25.5078         25.0550    
  15      27.5188         27.5159         27.5099         27.5010         27.4890         27.4739         27.4557         27.4343         27.4096         27.3814    
          27.3497         27.3143         27.2749         27.2314         27.1834         27.1307         27.0728         27.0094         26.9400         26.8638    
          26.7802         26.6882         26.5864         26.4728         26.3446         26.1968         26.0213         25.8024         25.5078         25.0550    
  16      27.5188         27.5159         27.5099         27.5010         27.4890         27.4739         27.4557         27.4343         27.4096         27.3814    
          27.3497         27.3143         27.2749         27.2314         27.1834         27.1307         27.0728         27.0094         26.9400         26.8638    
          26.7802         26.6882         26.5864         26.4728         26.3446         26.1968         26.0213         25.8024         25.5078         25.0550    
  17      27.5188         27.5159         27.5099         27.5010         27.4890         27.4739         27.4557         27.4343         27.4096         27.3814    
          27.3497         27.3143         27.2749         27.2314         27.1834         27.1307         27.0728         27.0094         26.9400         26.8638    
          26.7802         26.6882         26.5864         26.4728         26.3446         26.1968         26.0213         25.8024         25.5078         25.0550    
  18      27.5188         27.5159         27.5099         27.5010         27.4890         27.4739         27.4557         27.4343         27.4096         27.3814    
          27.3497         27.3143         27.2749         27.2314         27.1834         27.1307         27.0728         27.0094         26.9400         26.8638    
          26.7802         26.6882         26.5864         26.4728         26.3446         26.1968         26.0213         25.8024         25.5078         25.0550    
  19      27.5188         27.5159         27.5099         27.5010         27.4890         27.4739         27.4557         27.4343         27.4096         27.3814    
          27.3497         27.3143         27.2749         27.2314         27.1834         27.1307         27.0728         27.0094         26.9400         26.8638    
          26.7802         26.6882         26.5864         26.4728         26.3446         26.1968         26.0213         25.8024         25.5078         25.0550    
  20      27.5188         27.5159         27.5099         27.5010         27.4890         27.4739         27.4557         27.4343         27.4096         27.3814    
          27.3497         27.3143         27.2749         27.2314         27.1834         27.1307         27.0728         27.0094         26.9400         26.8638    
          26.7802         26.6882         26.5864         26.4728         26.3446         26.1968         26.0213         25.8024         25.5078         25.0550    
  21      27.5188         27.5159         27.5099         27.5010         27.4890         27.4739         27.4557         27.4343         27.4096         27.3814    
          27.3497         27.3143         27.2749         27.2314         27.1834         27.1307         27.0728         27.0094         26.9400         26.8638    
          26.7802         26.6882         26.5864         26.4728         26.3446         26.1968         26.0213         25.8024         25.5078         25.0550    
  22      27.5188         27.5159         27.5099         27.5010         27.4890         27.4739         27.4557         27.4343         27.4096         27.3814    
          27.3497         27.3143         27.2749         27.2314         27.1834         27.1307         27.0728         27.0094         26.9400         26.8638    
          26.7802         26.6882         26.5864         26.4728         26.3446         26.1968         26.0213         25.8024         25.5078         25.0550    
  23      27.5188         27.5159         27.5099         27.5010         27.4890         27.4739         27.4557         27.4343         27.4096         27.3814    
          27.3497         27.3143         27.2749         27.2314         27.1834         27.1307         27.0728         27.0094         26.9400         26.8638    
          26.7802         26.6882         26.5864         26.4728         26.3446         26.1968         26.0213         25.8024         25.5078         25.0550    
  24      27.5188         27.5159         27.5099         27.5010         27.4890         27.4739         27.4557         27.4343         27.4096         27.3814    
          27.3497         27.3143         27.2749         27.2314         27.1834         27.1307         27.0728         27.0094         26.9400         26.8638    
          26.7802         26.6882         26.5864         26.4728         26.3446         26.1968         26.0213         25.8024         25.5078         25.0550    
  25      27.5188         27.5159         27.5099         27.5010         27.4890         27.4739         27.4557         27.4343         27.4096         27.3814    
          27.3497         27.3143         27.2749         27.2314         27.1834         27.1307         27.0728         27.0094         26.9400         26.8638    
          26.7802         26.6882         26.5864         26.4728         26.3446         26.1968         26.0213         25.8024         25.5078         25.0550    
  26      27.5188         27.5159         27.5099         27.5010         27.4890         27.4739         27.4557         27.4343         27.4096         27.3814    
          27.3497         27.3143         27.2749         27.2314         27.1834         27.1307         27.0728         27.0094         26.9400         26.8638    
          26.7802         26.6882         26.5864         26.4728         26.3446         26.1968         26.0213         25.8024         25.5078         25.0550    
  27      27.5188         27.5159         27.5099         27.5010         27.4890         27.4739         27.4557         27.4343         27.4096         27.3814    
          27.3497         27.3143         27.2749         27.2314         27.1834         27.1307         27.0728         27.0094         26.9400         26.8638    
          26.7802         26.6882         26.5864         26.4728         26.3446         26.1968         26.0213         25.8024         25.5078         25.0550    
  28      27.5188         27.5159         27.5099         27.5010         27.4890         27.4739         27.4557         27.4343         27.4096         27.3814    
          27.3497         27.3143         27.2749         27.2314         27.1834         27.1307         27.0728         27.0094         26.9400         26.8638    
          26.7802         26.6882         26.5864         26.4728         26.3446         26.1968         26.0213         25.8024         25.5078         25.0550    
  29      27.5188         27.5159         27.5099         27.5010         27.4890         27.4739         27.4557         27.4343         27.4096         27.3814    
          27.3497         27.3143         27.2749         27.2314         27.1834         27.1307         27.0728         27.0094         26.9400         26.8638    
          26.7802         26.6882         26.5864         26.4728         26.3446         26.1968         26.0213         25.8024         25.5078         25.0550    
  30      27.5188         27.5159         27.5099         27.5010         27.4890         27.4739         27.4557         27.4343         27.4096         27.3814    
          27.3497         27.3143         27.2749         27.2314         27.1834         27.1307         27.0728         27.0094         26.9400         26.8638    
          26.7802         26.6882         26.5864         26.4728         26.3446         26.1968         26.0213         25.8024         25.5078         25.0550    

 HEAD WILL BE SAVED ON UNIT 1019 AT END OF TIME STEP    1, STRESS PERIOD   33



         TIME SUMMARY AT END OF TIME STEP    1 IN STRESS PERIOD   33
                    SECONDS     MINUTES      HOURS       DAYS        YEARS
                    -----------------------------------------------------------
   TIME STEP LENGTH 2.59200E+05  4320.0      72.000      3.0000     8.21355E-03
 STRESS PERIOD TIME 2.59200E+05  4320.0      72.000      3.0000     8.21355E-03
         TOTAL TIME 8.06976E+07 1.34496E+06  22416.      934.00      2.5572    
 UBDSV1 SAVING           STO-SS ON UNIT   1018 AT TIME STEP      2, STRESS PERIOD     33
 UBDSV1 SAVING           STO-SY ON UNIT   1018 AT TIME STEP      2, STRESS PERIOD     33
 UBDSV1 SAVING     FLOW-JA-FACE ON UNIT   1018 AT TIME STEP      2, STRESS PERIOD     33
 UBDSV06 SAVING              RCH IN MODEL TEST_TRANS       PACKAGE TEST_TRANS      CONNECTED TO MODEL TEST_TRANS       PACKAGE RCHA             ON UNIT   1018 AT TIME STEP      2, STRESS PERIOD     33
 UBDSV06 SAVING              CHD IN MODEL TEST_TRANS       PACKAGE TEST_TRANS      CONNECTED TO MODEL TEST_TRANS       PACKAGE CHD              ON UNIT   1018 AT TIME STEP      2, STRESS PERIOD     33

 HEAD WILL BE SAVED ON UNIT 1019 AT END OF TIME STEP    2, STRESS PERIOD   33
 UBDSV1 SAVING           STO-SS ON UNIT   1018 AT TIME STEP      3, STRESS PERIOD     33
 UBDSV1 SAVING           STO-SY ON UNIT   1018 AT TIME STEP      3, STRESS PERIOD     33
 UBDSV1 SAVING     FLOW-JA-FACE ON UNIT   1018 AT TIME STEP      3, STRESS PERIOD     33
 UBDSV06 SAVING              RCH IN MODEL TEST_TRANS       PACKAGE TEST_TRANS      CONNECTED TO MODEL TEST_TRANS       PACKAGE RCHA             ON UNIT   1018 AT TIME STEP      3, STRESS PERIOD     33
 UBDSV06 SAVING              CHD IN MODEL TEST_TRANS       PACKAGE TEST_TRANS      CONNECTED TO MODEL TEST_TRANS       PACKAGE CHD              ON UNIT   1018 AT TIME STEP      3, STRESS PERIOD     33

 HEAD WILL BE SAVED ON UNIT 1019 AT END OF TIME STEP    3, STRESS PERIOD   33
 UBDSV1 SAVING           STO-SS ON UNIT   1018 AT TIME STEP      4, STRESS PERIOD     33
 UBDSV1 SAVING           STO-SY ON UNIT   1018 AT TIME STEP      4, STRESS PERIOD     33
 UBDSV1 SAVING     FLOW-JA-FACE ON UNIT   1018 AT TIME STEP      4, STRESS PERIOD     33
 UBDSV06 SAVING              RCH IN MODEL TEST_TRANS       PACKAGE TEST_TRANS      CONNECTED TO MODEL TEST_TRANS       PACKAGE RCHA             ON UNIT   1018 AT TIME STEP      4, STRESS PERIOD     33
 UBDSV06 SAVING              CHD IN MODEL TEST_TRANS       PACKAGE TEST_TRANS      CONNECTED TO MODEL TEST_TRANS       PACKAGE CHD              ON UNIT   1018 AT TIME STEP      4, STRESS PERIOD     33

 HEAD WILL BE SAVED ON UNIT 1019 AT END OF TIME STEP    4, STRESS PERIOD   33
 UBDSV1 SAVING           STO-SS ON UNIT   1018 AT TIME STEP      5, STRESS PERIOD     33
 UBDSV1 SAVING           STO-SY ON UNIT   1018 AT TIME STEP      5, STRESS PERIOD     33
 UBDSV1 SAVING     FLOW-JA-FACE ON UNIT   1018 AT TIME STEP      5, STRESS PERIOD     33
 UBDSV06 SAVING              RCH IN MODEL TEST_TRANS       PACKAGE TEST_TRANS      CONNECTED TO MODEL TEST_TRANS       PACKAGE RCHA             ON UNIT   1018 AT TIME STEP      5, STRESS PERIOD     33
 UBDSV06 SAVING              CHD IN MODEL TEST_TRANS       PACKAGE TEST_TRANS      CONNECTED TO MODEL TEST_TRANS       PACKAGE CHD              ON UNIT   1018 AT TIME STEP      5, STRESS PERIOD     33

 HEAD WILL BE SAVED ON UNIT 1019 AT END OF TIME STEP    5, STRESS PERIOD   33
 UBDSV1 SAVING           STO-SS ON UNIT   1018 AT TIME STEP      6, STRESS PERIOD     33
 UBDSV1 SAVING           STO-SY ON UNIT   1018 AT TIME STEP      6, STRESS PERIOD     33
 UBDSV1 SAVING     FLOW-JA-FACE ON UNIT   1018 AT TIME STEP      6, STRESS PERIOD     33
 UBDSV06 SAVING              RCH IN MODEL TEST_TRANS       PACKAGE TEST_TRANS      CONNECTED TO MODEL TEST_TRANS       PACKAGE RCHA             ON UNIT   1018 AT TIME STEP      6, STRESS PERIOD     33
 UBDSV06 SAVING              CHD IN MODEL TEST_TRANS       PACKAGE TEST_TRANS      CONNECTED TO MODEL TEST_TRANS       PACKAGE CHD              ON UNIT   1018 AT TIME STEP      6, STRESS PERIOD     33

 HEAD WILL BE SAVED ON UNIT 1019 AT END OF TIME STEP    6, STRESS PERIOD   33
 UBDSV1 SAVING           STO-SS ON UNIT   1018 AT TIME STEP      7, STRESS PERIOD     33
 UBDSV1 SAVING           STO-SY ON UNIT   1018 AT TIME STEP      7, STRESS PERIOD     33
 UBDSV1 SAVING     FLOW-JA-FACE ON UNIT   1018 AT TIME STEP      7, STRESS PERIOD     33
 UBDSV06 SAVING              RCH IN MODEL TEST_TRANS       PACKAGE TEST_TRANS      CONNECTED TO MODEL TEST_TRANS       PACKAGE RCHA             ON UNIT   1018 AT TIME STEP      7, STRESS PERIOD     33
 UBDSV06 SAVING              CHD IN MODEL TEST_TRANS       PACKAGE TEST_TRANS      CONNECTED TO MODEL TEST_TRANS       PACKAGE CHD              ON UNIT   1018 AT TIME STEP      7, STRESS PERIOD     33

 HEAD WILL BE SAVED ON UNIT 1019 AT END OF TIME STEP    7, STRESS PERIOD   33
 UBDSV1 SAVING           STO-SS ON UNIT   1018 AT TIME STEP      8, STRESS PERIOD     33
 UBDSV1 SAVING           STO-SY ON UNIT   1018 AT TIME STEP      8, STRESS PERIOD     33
 UBDSV1 SAVING     FLOW-JA-FACE ON UNIT   1018 AT TIME STEP      8, STRESS PERIOD     33
 UBDSV06 SAVING              RCH IN MODEL TEST_TRANS       PACKAGE TEST_TRANS      CONNECTED TO MODEL TEST_TRANS       PACKAGE RCHA             ON UNIT   1018 AT TIME STEP      8, STRESS PERIOD     33
 UBDSV06 SAVING              CHD IN MODEL TEST_TRANS       PACKAGE TEST_TRANS      CONNECTED TO MODEL TEST_TRANS       PACKAGE CHD              ON UNIT   1018 AT TIME STEP      8, STRESS PERIOD     33

 HEAD WILL BE SAVED ON UNIT 1019 AT END OF TIME STEP    8, STRESS PERIOD   33
 UBDSV1 SAVING           STO-SS ON UNIT   1018 AT TIME STEP      9, STRESS PERIOD     33
 UBDSV1 SAVING           STO-SY ON UNIT   1018 AT TIME STEP      9, STRESS PERIOD     33
 UBDSV1 SAVING     FLOW-JA-FACE ON UNIT   1018 AT TIME STEP      9, STRESS PERIOD     33
 UBDSV06 SAVING              RCH IN MODEL TEST_TRANS       PACKAGE TEST_TRANS      CONNECTED TO MODEL TEST_TRANS       PACKAGE RCHA             ON UNIT   1018 AT TIME STEP      9, STRESS PERIOD     33
 UBDSV06 SAVING              CHD IN MODEL TEST_TRANS       PACKAGE TEST_TRANS      CONNECTED TO MODEL TEST_TRANS       PACKAGE CHD              ON UNIT   1018 AT TIME STEP      9, STRESS PERIOD     33

 HEAD WILL BE SAVED ON UNIT 1019 AT END OF TIME STEP    9, STRESS PERIOD   33
 UBDSV1 SAVING           STO-SS ON UNIT   1018 AT TIME STEP     10, STRESS PERIOD     33
 UBDSV1 SAVING           STO-SY ON UNIT   1018 AT TIME STEP     10, STRESS PERIOD     33
 UBDSV1 SAVING     FLOW-JA-FACE ON UNIT   1018 AT TIME STEP     10, STRESS PERIOD     33
 UBDSV06 SAVING              RCH IN MODEL TEST_TRANS       PACKAGE TEST_TRANS      CONNECTED TO MODEL TEST_TRANS       PACKAGE RCHA             ON UNIT   1018 AT TIME STEP     10, STRESS PERIOD     33
 UBDSV06 SAVING              CHD IN MODEL TEST_TRANS       PACKAGE TEST_TRANS      CONNECTED TO MODEL TEST_TRANS       PACKAGE CHD              ON UNIT   1018 AT TIME STEP     10, STRESS PERIOD     33
1
  HEAD IN LAYER   1 AT END OF TIME STEP  10 IN STRESS PERIOD   33
  ---------------------------------------------------------------------------

                1               2               3               4               5               6               7               8               9              10
               11              12              13              14              15              16              17              18              19              20
               21              22              23              24              25              26              27              28              29              30
 ................................................................................................................................................................
   1      27.5703         27.5669         27.5599         27.5495         27.5355         27.5178         27.4963         27.4710         27.4417         27.4081    
          27.3702         27.3275         27.2799         27.2271         27.1686         27.1041         27.0331         26.9550         26.8692         26.7750    
          26.6716         26.5580         26.4331         26.2954         26.1433         25.9746         25.7866         25.5751         25.3345         25.0550    
   2      27.5703         27.5669         27.5599         27.5495         27.5355         27.5178         27.4963         27.4710         27.4417         27.4081    
          27.3702         27.3275         27.2799         27.2271         27.1686         27.1041         27.0331         26.9550         26.8692         26.7750    
          26.6716         26.5580         26.4331         26.2954         26.1433         25.9746         25.7866         25.5751         25.3345         25.0550    
   3      27.5703         27.5669         27.5599         27.5495         27.5355         27.5178         27.4963         27.4710         27.4417         27.4081    
          27.3702         27.3275         27.2799         27.2271         27.1686         27.1041         27.0331         26.9550         26.8692         26.7750    
          26.6716         26.5580         26.4331         26.2954         26.1433         25.9747         25.7866         25.5751         25.3345         25.0550    
   4      27.5703         27.5669         27.5599         27.5495         27.5355         27.5178         27.4963         27.4710         27.4417         27.4081    
          27.3702         27.3275         27.2799         27.2271         27.1686         27.1041         27.0331         26.9550         26.8692         26.7750    
          26.6716         26.5580         26.4331         26.2954         26.1433         25.9747         25.7866         25.5751         25.3345         25.0550    
   5      27.5703         27.5669         27.5599         27.5495         27.5355         27.5178         27.4963         27.4710         27.4417         27.4081    
          27.3702         27.3275         27.2799         27.2271         27.1686         27.1041         27.0331         26.9550         26.8692         26.7750    
          26.6716         26.5580         26.4331         26.2954         26.1433         25.9747         25.7866         25.5751         25.3345         25.0550    
   6      27.5703         27.5669         27.5599         27.5495         27.5355         27.5178         27.4963         27.4710         27.4417         27.4081    
          27.3702         27.3275         27.2799         27.2271         27.1686         27.1041         27.0331         26.9550         26.8692         26.7750    
          26.6716         26.5580         26.4331         26.2954         26.1433         25.9747         25.7866         25.5751         25.3345         25.0550    
   7      27.5703         27.5669         27.5599         27.5495         27.5355         27.5178         27.4963         27.4710         27.4417         27.4081    
          27.3702         27.3275         27.2799         27.2271         27.1686         27.1041         27.0331         26.9550         26.8692         26.7750    
          26.6716         26.5580         26.4331         26.2954         26.1433         25.9746         25.7866         25.5751         25.3345         25.0550    
   8      27.5703         27.5669         27.5599         27.5495         27.5355         27.5178         27.4963         27.4710         27.4417         27.4081    
          27.3702         27.3275         27.2799         27.2271         27.1686         27.1041         27.0331         26.9550         26.8692         26.7750    
          26.6716         26.5580         26.4331         26.2954         26.1433         25.9746         25.7866         25.5751         25.3345         25.0550    
   9      27.5703         27.5669         27.5599         27.5495         27.5355         27.5178         27.4963         27.4710         27.4417         27.4081    
          27.3702         27.3275         27.2799         27.2271         27.1686         27.1041         27.0331         26.9550         26.8692         26.7750    
          26.6716         26.5580         26.4331         26.2954         26.1433         25.9746         25.7866         25.5751         25.3345         25.0550    
  10      27.5703         27.5669         27.5599         27.5495         27.5355         27.5178         27.4963         27.4710         27.4417         27.4081    
          27.3702         27.3275         27.2799         27.2271         27.1686         27.1041         27.0331         26.9550         26.8692         26.7750    
          26.6716         26.5580         26.4331         26.2954         26.1433         25.9746         25.7866         25.5751         25.3345         25.0550    
  11      27.5703         27.5669         27.5599         27.5495         27.5355         27.5178         27.4963         27.4710         27.4417         27.4081    
          27.3702         27.3275         27.2799         27.2271         27.1686         27.1041         27.0331         26.9550         26.8692         26.7750    
          26.6716         26.5580         26.4331         26.2954         26.1433         25.9746         25.7866         25.5751         25.3345         25.0550    
  12      27.5703         27.5669         27.5599         27.5495         27.5355         27.5178         27.4963         27.4710         27.4417         27.4081    
          27.3702         27.3275         27.2799         27.2271         27.1686         27.1041         27.0331         26.9550         26.8692         26.7750    
          26.6716         26.5580         26.4331         26.2954         26.1433         25.9746         25.7866         25.5751         25.3345         25.0550    
  13      27.5703         27.5669         27.5599         27.5495         27.5355         27.5178         27.4963         27.4710         27.4417         27.4081    
          27.3702         27.3275         27.2799         27.2271         27.1686         27.1041         27.0331         26.9550         26.8692         26.7750    
          26.6716         26.5580         26.4331         26.2954         26.1433         25.9746         25.7866         25.5751         25.3345         25.0550    
  14      27.5703         27.5669         27.5599         27.5495         27.5355         27.5178         27.4963         27.4710         27.4417         27.4081    
          27.3702         27.3275         27.2799         27.2271         27.1686         27.1041         27.0331         26.9550         26.8692         26.7750    
          26.6716         26.5580         26.4331         26.2954         26.1433         25.9746         25.7866         25.5751         25.3345         25.0550    
  15      27.5703         27.5669         27.5599         27.5495         27.5355         27.5178         27.4963         27.4710         27.4417         27.4081    
          27.3702         27.3275         27.2799         27.2271         27.1686         27.1041         27.0331         26.9550         26.8692         26.7750    
          26.6716         26.5580         26.4331         26.2954         26.1433         25.9746         25.7866         25.5751         25.3345         25.0550    
  16      27.5703         27.5669         27.5599         27.5495         27.5355         27.5178         27.4963         27.4710         27.4417         27.4081    
          27.3702         27.3275         27.2799         27.2271         27.1686         27.1041         27.0331         26.9550         26.8692         26.7750    
          26.6716         26.5580         26.4331         26.2954         26.1433         25.9746         25.7866         25.5751         25.3345         25.0550    
  17      27.5703         27.5669         27.5599         27.5495         27.5355         27.5178         27.4963         27.4710         27.4417         27.4081    
          27.3702         27.3275         27.2799         27.2271         27.1686         27.1041         27.0331         26.9550         26.8692         26.7750    
          26.6716         26.5580         26.4331         26.2954         26.1433         25.9746         25.7866         25.5751         25.3345         25.0550    
  18      27.5703         27.5669         27.5599         27.5495         27.5355         27.5178         27.4963         27.4710         27.4417         27.4081    
          27.3702         27.3275         27.2799         27.2271         27.1686         27.1041         27.0331         26.9550         26.8692         26.7750    
          26.6716         26.5580         26.4331         26.2954         26.1433         25.9746         25.7866         25.5751         25.3345         25.0550    
  19      27.5703         27.5669         27.5599         27.5495         27.5355         27.5178         27.4963         27.4710         27.4417         27.4081    
          27.3702         27.3275         27.2799         27.2271         27.1686         27.1041         27.0331         26.9550         26.8692         26.7750    
          26.6716         26.5580         26.4331         26.2954         26.1433         25.9746         25.7866         25.5751         25.3345         25.0550    
  20      27.5703         27.5669         27.5599         27.5495         27.5355         27.5178         27.4963         27.4710         27.4417         27.4081    
          27.3702         27.3275         27.2799         27.2271         27.1686         27.1041         27.0331         26.9550         26.8692         26.7750    
          26.6716         26.5580         26.4331         26.2954         26.1433         25.9746         25.7866         25.5751         25.3345         25.0550    
  21      27.5703         27.5669         27.5599         27.5495         27.5355         27.5178         27.4963         27.4710         27.4417         27.4081    
          27.3702         27.3275         27.2799         27.2271         27.1686         27.1041         27.0331         26.9550         26.8692         26.7750    
          26.6716         26.5580         26.4331         26.2954         26.1433         25.9746         25.7866         25.5751         25.3345         25.0550    
  22      27.5703         27.5669         27.5599         27.5495         27.5355         27.5178         27.4963         27.4710         27.4417         27.4081    
          27.3702         27.3275         27.2799         27.2271         27.1686         27.1041         27.0331         26.9550         26.8692         26.7750    
          26.6716         26.5580         26.4331         26.2954         26.1433         25.9746         25.7866         25.5751         25.3345         25.0550    
  23      27.5703         27.5669         27.5599         27.5495         27.5355         27.5178         27.4963         27.4710         27.4417         27.4081    
          27.3702         27.3275         27.2799         27.2271         27.1686         27.1041         27.0331         26.9550         26.8692         26.7750    
          26.6716         26.5580         26.4331         26.2954         26.1433         25.9746         25.7866         25.5751         25.3345         25.0550    
  24      27.5703         27.5669         27.5599         27.5495         27.5355         27.5178         27.4963         27.4710         27.4417         27.4081    
          27.3702         27.3275         27.2799         27.2271         27.1686         27.1041         27.0331         26.9550         26.8692         26.7750    
          26.6716         26.5580         26.4331         26.2954         26.1433         25.9746         25.7866         25.5751         25.3345         25.0550    
  25      27.5703         27.5669         27.5599         27.5495         27.5355         27.5178         27.4963         27.4710         27.4417         27.4081    
          27.3702         27.3275         27.2799         27.2271         27.1686         27.1041         27.0331         26.9550         26.8692         26.7750    
          26.6716         26.5580         26.4331         26.2954         26.1433         25.9746         25.7866         25.5751         25.3345         25.0550    
  26      27.5703         27.5669         27.5599         27.5495         27.5355         27.5178         27.4963         27.4710         27.4417         27.4081    
          27.3702         27.3275         27.2799         27.2271         27.1686         27.1041         27.0331         26.9550         26.8692         26.7750    
          26.6716         26.5580         26.4331         26.2954         26.1433         25.9746         25.7866         25.5751         25.3345         25.0550    
  27      27.5703         27.5669         27.5599         27.5495         27.5355         27.5178         27.4963         27.4710         27.4417         27.4081    
          27.3702         27.3275         27.2799         27.2271         27.1686         27.1041         27.0331         26.9550         26.8692         26.7750    
          26.6716         26.5580         26.4331         26.2954         26.1433         25.9746         25.7866         25.5751         25.3345         25.0550    
  28      27.5703         27.5669         27.5599         27.5495         27.5355         27.5178         27.4963         27.4710         27.4417         27.4081    
          27.3702         27.3275         27.2799         27.2271         27.1686         27.1041         27.0331         26.9550         26.8692         26.7750    
          26.6716         26.5580         26.4331         26.2954         26.1433         25.9746         25.7866         25.5751         25.3345         25.0550    
  29      27.5703         27.5669         27.5599         27.5495         27.5355         27.5178         27.4963         27.4710         27.4417         27.4081    
          27.3702         27.3275         27.2799         27.2271         27.1686         27.1041         27.0331         26.9550         26.8692         26.7750    
          26.6716         26.5580         26.4331         26.2954         26.1433         25.9746         25.7866         25.5751         25.3345         25.0550    
  30      27.5703         27.5669         27.5599         27.5495         27.5355         27.5178         27.4963         27.4710         27.4417         27.4081    
          27.3702         27.3275         27.2799         27.2271         27.1686         27.1041         27.0331         26.9550         26.8692         26.7750    
          26.6716         26.5580         26.4331         26.2954         26.1433         25.9746         25.7866         25.5751         25.3345         25.0550    

 HEAD WILL BE SAVED ON UNIT 1019 AT END OF TIME STEP   10, STRESS PERIOD   33


  VOLUME BUDGET FOR ENTIRE MODEL AT END OF TIME STEP   10, STRESS PERIOD  33
  ---------------------------------------------------------------------------------------------------

     CUMULATIVE VOLUME      L**3       RATES FOR THIS TIME STEP      L**3/T          PACKAGE NAME    
     ------------------                 ------------------------                     ----------------

           IN:                                      IN:
           ---                                      ---
              STO-SS =          55.1565                STO-SS =       3.2122E-02     STORAGE         
              STO-SY =       35521.3315                STO-SY =          21.4798     STORAGE         
                 RCH =      152905.5538                   RCH =         143.0141     RCHA            
                 CHD =        2029.0190                   CHD =           0.0000     CHD             

            TOTAL IN =      190511.0608              TOTAL IN =         164.5260

          OUT:                                     OUT:
          ----                                     ----
              STO-SS =          43.2985                STO-SS =       9.8953E-03     STORAGE         
              STO-SY =       28292.5003                STO-SY =           6.1745     STORAGE         
                 RCH =           0.0000                   RCH =           0.0000     RCHA            
                 CHD =      162174.6110                   CHD =         158.3374     CHD             

           TOTAL OUT =      190510.4098             TOTAL OUT =         164.5218

            IN - OUT =           0.6510              IN - OUT =       4.1730E-03

 PERCENT DISCREPANCY =           0.00     PERCENT DISCREPANCY =           0.00




         TIME SUMMARY AT END OF TIME STEP   10 IN STRESS PERIOD   33
                    SECONDS     MINUTES      HOURS       DAYS        YEARS
                    -----------------------------------------------------------
   TIME STEP LENGTH 2.59200E+05  4320.0      72.000      3.0000     8.21355E-03
 STRESS PERIOD TIME 2.59200E+06  43200.      720.00      30.000     8.21355E-02
         TOTAL TIME 8.30304E+07 1.38384E+06  23064.      961.00      2.6311    

 OUTPUT CONTROL FOR STRESS PERIOD 34 IS REPEATED USING SETTINGS FROM A PREVIOUS STRESS PERIOD.


 STRESS PERIOD 34 IS TRANSIENT


                 RECHARGE =  0.2191780E-02
 UBDSV1 SAVING           STO-SS ON UNIT   1018 AT TIME STEP      1, STRESS PERIOD     34
 UBDSV1 SAVING           STO-SY ON UNIT   1018 AT TIME STEP      1, STRESS PERIOD     34
 UBDSV1 SAVING     FLOW-JA-FACE ON UNIT   1018 AT TIME STEP      1, STRESS PERIOD     34
 UBDSV06 SAVING              RCH IN MODEL TEST_TRANS       PACKAGE TEST_TRANS      CONNECTED TO MODEL TEST_TRANS       PACKAGE RCHA             ON UNIT   1018 AT TIME STEP      1, STRESS PERIOD     34
 UBDSV06 SAVING              CHD IN MODEL TEST_TRANS       PACKAGE TEST_TRANS      CONNECTED TO MODEL TEST_TRANS       PACKAGE CHD              ON UNIT   1018 AT TIME STEP      1, STRESS PERIOD     34
1
  HEAD IN LAYER   1 AT END OF TIME STEP   1 IN STRESS PERIOD   34
  ---------------------------------------------------------------------------

                1               2               3               4               5               6               7               8               9              10
               11              12              13              14              15              16              17              18              19              20
               21              22              23              24              25              26              27              28              29              30
 ................................................................................................................................................................
   1      27.5823         27.5787         27.5717         27.5610         27.5467         27.5287         27.5069         27.4811         27.4512         27.4171    
          27.3784         27.3351         27.2867         27.2331         27.1738         27.1084         27.0365         26.9575         26.8709         26.7760    
          26.6719         26.5577         26.4322         26.2941         26.1416         25.9722         25.7826         25.5681         25.3203         25.0242    
   2      27.5823         27.5787         27.5717         27.5610         27.5467         27.5287         27.5069         27.4811         27.4512         27.4171    
          27.3784         27.3351         27.2867         27.2331         27.1738         27.1084         27.0365         26.9575         26.8709         26.7760    
          26.6719         26.5577         26.4322         26.2941         26.1416         25.9722         25.7826         25.5681         25.3203         25.0242    
   3      27.5823         27.5787         27.5717         27.5610         27.5467         27.5287         27.5069         27.4811         27.4512         27.4171    
          27.3784         27.3351         27.2867         27.2331         27.1738         27.1084         27.0365         26.9575         26.8709         26.7760    
          26.6719         26.5577         26.4322         26.2941         26.1415         25.9722         25.7826         25.5681         25.3203         25.0242    
   4      27.5823         27.5787         27.5717         27.5610         27.5467         27.5287         27.5069         27.4811         27.4512         27.4171    
          27.3784         27.3351         27.2867         27.2331         27.1738         27.1084         27.0365         26.9575         26.8709         26.7760    
          26.6719         26.5577         26.4322         26.2941         26.1415         25.9722         25.7826         25.5681         25.3203         25.0242    
   5      27.5823         27.5787         27.5717         27.5610         27.5467         27.5287         27.5069         27.4811         27.4512         27.4171    
          27.3784         27.3351         27.2867         27.2331         27.1738         27.1084         27.0365         26.9575         26.8709         26.7760    
          26.6719         26.5577         26.4322         26.2941         26.1415         25.9722         25.7826         25.5681         25.3203         25.0242    
   6      27.5823         27.5787         27.5717         27.5610         27.5467         27.5287         27.5069         27.4811         27.4512         27.4171    
          27.3784         27.3351         27.2867         27.2331         27.1738         27.1084         27.0365         26.9575         26.8709         26.7760    
          26.6719         26.5577         26.4322         26.2941         26.1415         25.9722         25.7826         25.5681         25.3203         25.0242    
   7      27.5823         27.5787         27.5717         27.5610         27.5467         27.5287         27.5069         27.4811         27.4512         27.4171    
          27.3784         27.3351         27.2867         27.2331         27.1738         27.1084         27.0365         26.9575         26.8709         26.7760    
          26.6719         26.5577         26.4322         26.2941         26.1415         25.9722         25.7826         25.5681         25.3203         25.0242    
   8      27.5823         27.5787         27.5717         27.5610         27.5467         27.5287         27.5069         27.4811         27.4512         27.4171    
          27.3784         27.3351         27.2867         27.2331         27.1738         27.1084         27.0365         26.9575         26.8709         26.7760    
          26.6719         26.5577         26.4322         26.2941         26.1415         25.9722         25.7826         25.5681         25.3203         25.0242    
   9      27.5823         27.5787         27.5717         27.5610         27.5467         27.5287         27.5069         27.4811         27.4512         27.4171    
          27.3784         27.3351         27.2867         27.2331         27.1738         27.1084         27.0365         26.9575         26.8709         26.7760    
          26.6719         26.5577         26.4322         26.2941         26.1415         25.9722         25.7826         25.5681         25.3203         25.0242    
  10      27.5823         27.5787         27.5717         27.5610         27.5467         27.5287         27.5069         27.4811         27.4512         27.4171    
          27.3784         27.3351         27.2867         27.2331         27.1738         27.1084         27.0365         26.9575         26.8709         26.7760    
          26.6719         26.5577         26.4322         26.2941         26.1415         25.9722         25.7826         25.5681         25.3203         25.0242    
  11      27.5823         27.5787         27.5717         27.5610         27.5467         27.5287         27.5069         27.4811         27.4512         27.4171    
          27.3784         27.3351         27.2867         27.2331         27.1738         27.1084         27.0365         26.9575         26.8709         26.7760    
          26.6719         26.5577         26.4322         26.2941         26.1415         25.9722         25.7826         25.5681         25.3203         25.0242    
  12      27.5823         27.5787         27.5717         27.5610         27.5467         27.5287         27.5069         27.4811         27.4512         27.4171    
          27.3784         27.3351         27.2867         27.2331         27.1738         27.1084         27.0365         26.9575         26.8709         26.7760    
          26.6719         26.5577         26.4322         26.2941         26.1415         25.9722         25.7826         25.5681         25.3203         25.0242    
  13      27.5823         27.5787         27.5717         27.5610         27.5467         27.5287         27.5069         27.4811         27.4512         27.4171    
          27.3784         27.3351         27.2867         27.2331         27.1738         27.1084         27.0365         26.9575         26.8709         26.7760    
          26.6719         26.5577         26.4322         26.2941         26.1415         25.9722         25.7826         25.5681         25.3203         25.0242    
  14      27.5823         27.5787         27.5717         27.5610         27.5467         27.5287         27.5069         27.4811         27.4512         27.4171    
          27.3784         27.3351         27.2867         27.2331         27.1738         27.1084         27.0365         26.9575         26.8709         26.7760    
          26.6719         26.5577         26.4322         26.2941         26.1415         25.9722         25.7826         25.5681         25.3203         25.0242    
  15      27.5823         27.5787         27.5717         27.5610         27.5467         27.5287         27.5069         27.4811         27.4512         27.4171    
          27.3784         27.3351         27.2867         27.2331         27.1738         27.1084         27.0365         26.9575         26.8709         26.7760    
          26.6719         26.5577         26.4322         26.2941         26.1415         25.9722         25.7826         25.5681         25.3203         25.0242    
  16      27.5823         27.5787         27.5717         27.5610         27.5467         27.5287         27.5069         27.4811         27.4512         27.4171    
          27.3784         27.3351         27.2867         27.2331         27.1738         27.1084         27.0365         26.9575         26.8709         26.7760    
          26.6719         26.5577         26.4322         26.2941         26.1415         25.9722         25.7826         25.5681         25.3203         25.0242    
  17      27.5823         27.5787         27.5717         27.5610         27.5467         27.5287         27.5069         27.4811         27.4512         27.4171    
          27.3784         27.3351         27.2867         27.2331         27.1738         27.1084         27.0365         26.9575         26.8709         26.7760    
          26.6719         26.5577         26.4322         26.2941         26.1415         25.9722         25.7826         25.5681         25.3203         25.0242    
  18      27.5823         27.5787         27.5717         27.5610         27.5467         27.5287         27.5069         27.4811         27.4512         27.4171    
          27.3784         27.3351         27.2867         27.2331         27.1738         27.1084         27.0365         26.9575         26.8709         26.7760    
          26.6719         26.5577         26.4322         26.2941         26.1415         25.9722         25.7826         25.5681         25.3203         25.0242    
  19      27.5823         27.5787         27.5717         27.5610         27.5467         27.5287         27.5069         27.4811         27.4512         27.4171    
          27.3784         27.3351         27.2867         27.2331         27.1738         27.1084         27.0365         26.9575         26.8709         26.7760    
          26.6719         26.5577         26.4322         26.2941         26.1415         25.9722         25.7826         25.5681         25.3203         25.0242    
  20      27.5823         27.5787         27.5717         27.5610         27.5467         27.5287         27.5069         27.4811         27.4512         27.4171    
          27.3784         27.3351         27.2867         27.2331         27.1738         27.1084         27.0365         26.9575         26.8709         26.7760    
          26.6719         26.5577         26.4322         26.2941         26.1415         25.9722         25.7826         25.5681         25.3203         25.0242    
  21      27.5823         27.5787         27.5717         27.5610         27.5467         27.5287         27.5069         27.4811         27.4512         27.4171    
          27.3784         27.3351         27.2867         27.2331         27.1738         27.1084         27.0365         26.9575         26.8709         26.7760    
          26.6719         26.5577         26.4322         26.2941         26.1415         25.9722         25.7826         25.5681         25.3203         25.0242    
  22      27.5823         27.5787         27.5717         27.5610         27.5467         27.5287         27.5069         27.4811         27.4512         27.4171    
          27.3784         27.3351         27.2867         27.2331         27.1738         27.1084         27.0365         26.9575         26.8709         26.7760    
          26.6719         26.5577         26.4322         26.2941         26.1415         25.9722         25.7826         25.5681         25.3203         25.0242    
  23      27.5823         27.5787         27.5717         27.5610         27.5467         27.5287         27.5069         27.4811         27.4512         27.4171    
          27.3784         27.3351         27.2867         27.2331         27.1738         27.1084         27.0365         26.9575         26.8709         26.7760    
          26.6719         26.5577         26.4322         26.2941         26.1415         25.9722         25.7826         25.5681         25.3203         25.0242    
  24      27.5823         27.5787         27.5717         27.5610         27.5467         27.5287         27.5069         27.4811         27.4512         27.4171    
          27.3784         27.3351         27.2867         27.2331         27.1738         27.1084         27.0365         26.9575         26.8709         26.7760    
          26.6719         26.5577         26.4322         26.2941         26.1415         25.9722         25.7826         25.5681         25.3203         25.0242    
  25      27.5823         27.5787         27.5717         27.5610         27.5467         27.5287         27.5069         27.4811         27.4512         27.4171    
          27.3784         27.3351         27.2867         27.2331         27.1738         27.1084         27.0365         26.9575         26.8709         26.7760    
          26.6719         26.5577         26.4322         26.2941         26.1415         25.9722         25.7826         25.5681         25.3203         25.0242    
  26      27.5823         27.5787         27.5717         27.5610         27.5467         27.5287         27.5069         27.4811         27.4512         27.4171    
          27.3784         27.3351         27.2867         27.2331         27.1738         27.1084         27.0365         26.9575         26.8709         26.7760    
          26.6719         26.5577         26.4322         26.2941         26.1415         25.9722         25.7826         25.5681         25.3203         25.0242    
  27      27.5823         27.5787         27.5717         27.5610         27.5467         27.5287         27.5069         27.4811         27.4512         27.4171    
          27.3784         27.3351         27.2867         27.2331         27.1738         27.1084         27.0365         26.9575         26.8709         26.7760    
          26.6719         26.5577         26.4322         26.2941         26.1415         25.9722         25.7826         25.5681         25.3203         25.0242    
  28      27.5823         27.5787         27.5717         27.5610         27.5467         27.5287         27.5069         27.4811         27.4512         27.4171    
          27.3784         27.3351         27.2867         27.2331         27.1738         27.1084         27.0365         26.9575         26.8709         26.7760    
          26.6719         26.5577         26.4322         26.2941         26.1415         25.9722         25.7826         25.5681         25.3203         25.0242    
  29      27.5823         27.5787         27.5717         27.5610         27.5467         27.5287         27.5069         27.4811         27.4512         27.4171    
          27.3784         27.3351         27.2867         27.2331         27.1738         27.1084         27.0365         26.9575         26.8709         26.7760    
          26.6719         26.5577         26.4322         26.2941         26.1415         25.9722         25.7826         25.5681         25.3203         25.0242    
  30      27.5823         27.5787         27.5717         27.5610         27.5467         27.5287         27.5069         27.4811         27.4512         27.4171    
          27.3784         27.3351         27.2867         27.2331         27.1738         27.1084         27.0365         26.9575         26.8709         26.7760    
          26.6719         26.5577         26.4322         26.2941         26.1415         25.9722         25.7826         25.5681         25.3203         25.0242    

 HEAD WILL BE SAVED ON UNIT 1019 AT END OF TIME STEP    1, STRESS PERIOD   34



         TIME SUMMARY AT END OF TIME STEP    1 IN STRESS PERIOD   34
                    SECONDS     MINUTES      HOURS       DAYS        YEARS
                    -----------------------------------------------------------
   TIME STEP LENGTH 2.59200E+05  4320.0      72.000      3.0000     8.21355E-03
 STRESS PERIOD TIME 2.59200E+05  4320.0      72.000      3.0000     8.21355E-03
         TOTAL TIME 8.32896E+07 1.38816E+06  23136.      964.00      2.6393    
 UBDSV1 SAVING           STO-SS ON UNIT   1018 AT TIME STEP      2, STRESS PERIOD     34
 UBDSV1 SAVING           STO-SY ON UNIT   1018 AT TIME STEP      2, STRESS PERIOD     34
 UBDSV1 SAVING     FLOW-JA-FACE ON UNIT   1018 AT TIME STEP      2, STRESS PERIOD     34
 UBDSV06 SAVING              RCH IN MODEL TEST_TRANS       PACKAGE TEST_TRANS      CONNECTED TO MODEL TEST_TRANS       PACKAGE RCHA             ON UNIT   1018 AT TIME STEP      2, STRESS PERIOD     34
 UBDSV06 SAVING              CHD IN MODEL TEST_TRANS       PACKAGE TEST_TRANS      CONNECTED TO MODEL TEST_TRANS       PACKAGE CHD              ON UNIT   1018 AT TIME STEP      2, STRESS PERIOD     34

 HEAD WILL BE SAVED ON UNIT 1019 AT END OF TIME STEP    2, STRESS PERIOD   34
 UBDSV1 SAVING           STO-SS ON UNIT   1018 AT TIME STEP      3, STRESS PERIOD     34
 UBDSV1 SAVING           STO-SY ON UNIT   1018 AT TIME STEP      3, STRESS PERIOD     34
 UBDSV1 SAVING     FLOW-JA-FACE ON UNIT   1018 AT TIME STEP      3, STRESS PERIOD     34
 UBDSV06 SAVING              RCH IN MODEL TEST_TRANS       PACKAGE TEST_TRANS      CONNECTED TO MODEL TEST_TRANS       PACKAGE RCHA             ON UNIT   1018 AT TIME STEP      3, STRESS PERIOD     34
 UBDSV06 SAVING              CHD IN MODEL TEST_TRANS       PACKAGE TEST_TRANS      CONNECTED TO MODEL TEST_TRANS       PACKAGE CHD              ON UNIT   1018 AT TIME STEP      3, STRESS PERIOD     34

 HEAD WILL BE SAVED ON UNIT 1019 AT END OF TIME STEP    3, STRESS PERIOD   34
 UBDSV1 SAVING           STO-SS ON UNIT   1018 AT TIME STEP      4, STRESS PERIOD     34
 UBDSV1 SAVING           STO-SY ON UNIT   1018 AT TIME STEP      4, STRESS PERIOD     34
 UBDSV1 SAVING     FLOW-JA-FACE ON UNIT   1018 AT TIME STEP      4, STRESS PERIOD     34
 UBDSV06 SAVING              RCH IN MODEL TEST_TRANS       PACKAGE TEST_TRANS      CONNECTED TO MODEL TEST_TRANS       PACKAGE RCHA             ON UNIT   1018 AT TIME STEP      4, STRESS PERIOD     34
 UBDSV06 SAVING              CHD IN MODEL TEST_TRANS       PACKAGE TEST_TRANS      CONNECTED TO MODEL TEST_TRANS       PACKAGE CHD              ON UNIT   1018 AT TIME STEP      4, STRESS PERIOD     34

 HEAD WILL BE SAVED ON UNIT 1019 AT END OF TIME STEP    4, STRESS PERIOD   34
 UBDSV1 SAVING           STO-SS ON UNIT   1018 AT TIME STEP      5, STRESS PERIOD     34
 UBDSV1 SAVING           STO-SY ON UNIT   1018 AT TIME STEP      5, STRESS PERIOD     34
 UBDSV1 SAVING     FLOW-JA-FACE ON UNIT   1018 AT TIME STEP      5, STRESS PERIOD     34
 UBDSV06 SAVING              RCH IN MODEL TEST_TRANS       PACKAGE TEST_TRANS      CONNECTED TO MODEL TEST_TRANS       PACKAGE RCHA             ON UNIT   1018 AT TIME STEP      5, STRESS PERIOD     34
 UBDSV06 SAVING              CHD IN MODEL TEST_TRANS       PACKAGE TEST_TRANS      CONNECTED TO MODEL TEST_TRANS       PACKAGE CHD              ON UNIT   1018 AT TIME STEP      5, STRESS PERIOD     34

 HEAD WILL BE SAVED ON UNIT 1019 AT END OF TIME STEP    5, STRESS PERIOD   34
 UBDSV1 SAVING           STO-SS ON UNIT   1018 AT TIME STEP      6, STRESS PERIOD     34
 UBDSV1 SAVING           STO-SY ON UNIT   1018 AT TIME STEP      6, STRESS PERIOD     34
 UBDSV1 SAVING     FLOW-JA-FACE ON UNIT   1018 AT TIME STEP      6, STRESS PERIOD     34
 UBDSV06 SAVING              RCH IN MODEL TEST_TRANS       PACKAGE TEST_TRANS      CONNECTED TO MODEL TEST_TRANS       PACKAGE RCHA             ON UNIT   1018 AT TIME STEP      6, STRESS PERIOD     34
 UBDSV06 SAVING              CHD IN MODEL TEST_TRANS       PACKAGE TEST_TRANS      CONNECTED TO MODEL TEST_TRANS       PACKAGE CHD              ON UNIT   1018 AT TIME STEP      6, STRESS PERIOD     34

 HEAD WILL BE SAVED ON UNIT 1019 AT END OF TIME STEP    6, STRESS PERIOD   34
 UBDSV1 SAVING           STO-SS ON UNIT   1018 AT TIME STEP      7, STRESS PERIOD     34
 UBDSV1 SAVING           STO-SY ON UNIT   1018 AT TIME STEP      7, STRESS PERIOD     34
 UBDSV1 SAVING     FLOW-JA-FACE ON UNIT   1018 AT TIME STEP      7, STRESS PERIOD     34
 UBDSV06 SAVING              RCH IN MODEL TEST_TRANS       PACKAGE TEST_TRANS      CONNECTED TO MODEL TEST_TRANS       PACKAGE RCHA             ON UNIT   1018 AT TIME STEP      7, STRESS PERIOD     34
 UBDSV06 SAVING              CHD IN MODEL TEST_TRANS       PACKAGE TEST_TRANS      CONNECTED TO MODEL TEST_TRANS       PACKAGE CHD              ON UNIT   1018 AT TIME STEP      7, STRESS PERIOD     34

 HEAD WILL BE SAVED ON UNIT 1019 AT END OF TIME STEP    7, STRESS PERIOD   34
 UBDSV1 SAVING           STO-SS ON UNIT   1018 AT TIME STEP      8, STRESS PERIOD     34
 UBDSV1 SAVING           STO-SY ON UNIT   1018 AT TIME STEP      8, STRESS PERIOD     34
 UBDSV1 SAVING     FLOW-JA-FACE ON UNIT   1018 AT TIME STEP      8, STRESS PERIOD     34
 UBDSV06 SAVING              RCH IN MODEL TEST_TRANS       PACKAGE TEST_TRANS      CONNECTED TO MODEL TEST_TRANS       PACKAGE RCHA             ON UNIT   1018 AT TIME STEP      8, STRESS PERIOD     34
 UBDSV06 SAVING              CHD IN MODEL TEST_TRANS       PACKAGE TEST_TRANS      CONNECTED TO MODEL TEST_TRANS       PACKAGE CHD              ON UNIT   1018 AT TIME STEP      8, STRESS PERIOD     34

 HEAD WILL BE SAVED ON UNIT 1019 AT END OF TIME STEP    8, STRESS PERIOD   34
 UBDSV1 SAVING           STO-SS ON UNIT   1018 AT TIME STEP      9, STRESS PERIOD     34
 UBDSV1 SAVING           STO-SY ON UNIT   1018 AT TIME STEP      9, STRESS PERIOD     34
 UBDSV1 SAVING     FLOW-JA-FACE ON UNIT   1018 AT TIME STEP      9, STRESS PERIOD     34
 UBDSV06 SAVING              RCH IN MODEL TEST_TRANS       PACKAGE TEST_TRANS      CONNECTED TO MODEL TEST_TRANS       PACKAGE RCHA             ON UNIT   1018 AT TIME STEP      9, STRESS PERIOD     34
 UBDSV06 SAVING              CHD IN MODEL TEST_TRANS       PACKAGE TEST_TRANS      CONNECTED TO MODEL TEST_TRANS       PACKAGE CHD              ON UNIT   1018 AT TIME STEP      9, STRESS PERIOD     34

 HEAD WILL BE SAVED ON UNIT 1019 AT END OF TIME STEP    9, STRESS PERIOD   34
 UBDSV1 SAVING           STO-SS ON UNIT   1018 AT TIME STEP     10, STRESS PERIOD     34
 UBDSV1 SAVING           STO-SY ON UNIT   1018 AT TIME STEP     10, STRESS PERIOD     34
 UBDSV1 SAVING     FLOW-JA-FACE ON UNIT   1018 AT TIME STEP     10, STRESS PERIOD     34
 UBDSV06 SAVING              RCH IN MODEL TEST_TRANS       PACKAGE TEST_TRANS      CONNECTED TO MODEL TEST_TRANS       PACKAGE RCHA             ON UNIT   1018 AT TIME STEP     10, STRESS PERIOD     34
 UBDSV06 SAVING              CHD IN MODEL TEST_TRANS       PACKAGE TEST_TRANS      CONNECTED TO MODEL TEST_TRANS       PACKAGE CHD              ON UNIT   1018 AT TIME STEP     10, STRESS PERIOD     34
1
  HEAD IN LAYER   1 AT END OF TIME STEP  10 IN STRESS PERIOD   34
  ---------------------------------------------------------------------------

                1               2               3               4               5               6               7               8               9              10
               11              12              13              14              15              16              17              18              19              20
               21              22              23              24              25              26              27              28              29              30
 ................................................................................................................................................................
   1      27.6723         27.6683         27.6603         27.6483         27.6321         27.6118         27.5873         27.5583         27.5249         27.4869    
          27.4441         27.3962         27.3431         27.2845         27.2201         27.1495         27.0724         26.9882         26.8965         26.7967    
          26.6878         26.5692         26.4396         26.2976         26.1416         25.9692         25.7772         25.5611         25.3140         25.0242    
   2      27.6723         27.6683         27.6603         27.6483         27.6321         27.6118         27.5873         27.5583         27.5249         27.4869    
          27.4441         27.3962         27.3431         27.2845         27.2201         27.1495         27.0724         26.9882         26.8965         26.7967    
          26.6878         26.5692         26.4396         26.2976         26.1416         25.9692         25.7772         25.5611         25.3140         25.0242    
   3      27.6723         27.6683         27.6603         27.6483         27.6321         27.6118         27.5873         27.5583         27.5249         27.4869    
          27.4441         27.3962         27.3431         27.2845         27.2201         27.1495         27.0724         26.9882         26.8965         26.7967    
          26.6878         26.5692         26.4396         26.2976         26.1416         25.9692         25.7772         25.5611         25.3140         25.0242    
   4      27.6723         27.6683         27.6603         27.6483         27.6321         27.6118         27.5873         27.5583         27.5249         27.4869    
          27.4441         27.3962         27.3431         27.2845         27.2201         27.1495         27.0724         26.9882         26.8965         26.7967    
          26.6878         26.5692         26.4396         26.2976         26.1416         25.9692         25.7772         25.5611         25.3140         25.0242    
   5      27.6723         27.6683         27.6603         27.6483         27.6321         27.6118         27.5873         27.5583         27.5249         27.4869    
          27.4441         27.3962         27.3431         27.2845         27.2201         27.1495         27.0724         26.9882         26.8965         26.7967    
          26.6878         26.5692         26.4396         26.2976         26.1416         25.9692         25.7772         25.5611         25.3140         25.0242    
   6      27.6723         27.6683         27.6603         27.6483         27.6321         27.6118         27.5873         27.5583         27.5249         27.4869    
          27.4441         27.3962         27.3431         27.2845         27.2201         27.1495         27.0724         26.9882         26.8965         26.7967    
          26.6878         26.5692         26.4396         26.2976         26.1416         25.9692         25.7772         25.5611         25.3140         25.0242    
   7      27.6723         27.6683         27.6603         27.6483         27.6321         27.6118         27.5873         27.5583         27.5249         27.4869    
          27.4440         27.3962         27.3431         27.2845         27.2201         27.1495         27.0724         26.9882         26.8965         26.7967    
          26.6878         26.5692         26.4396         26.2976         26.1416         25.9692         25.7772         25.5611         25.3141         25.0242    
   8      27.6723         27.6683         27.6603         27.6483         27.6321         27.6118         27.5873         27.5583         27.5249         27.4869    
          27.4440         27.3962         27.3431         27.2845         27.2201         27.1495         27.0724         26.9882         26.8965         26.7967    
          26.6878         26.5692         26.4396         26.2976         26.1416         25.9692         25.7772         25.5611         25.3141         25.0242    
   9      27.6723         27.6683         27.6603         27.6483         27.6321         27.6118         27.5873         27.5583         27.5249         27.4869    
          27.4440         27.3962         27.3431         27.2845         27.2201         27.1495         27.0724         26.9882         26.8965         26.7967    
          26.6878         26.5692         26.4396         26.2976         26.1416         25.9692         25.7772         25.5611         25.3141         25.0242    
  10      27.6723         27.6683         27.6603         27.6483         27.6321         27.6118         27.5873         27.5583         27.5249         27.4869    
          27.4440         27.3962         27.3431         27.2845         27.2201         27.1495         27.0724         26.9882         26.8965         26.7967    
          26.6878         26.5692         26.4396         26.2976         26.1416         25.9692         25.7772         25.5611         25.3141         25.0242    
  11      27.6723         27.6683         27.6603         27.6483         27.6321         27.6118         27.5873         27.5583         27.5249         27.4869    
          27.4440         27.3962         27.3431         27.2845         27.2201         27.1495         27.0724         26.9882         26.8965         26.7967    
          26.6878         26.5692         26.4396         26.2976         26.1416         25.9692         25.7772         25.5611         25.3141         25.0242    
  12      27.6723         27.6683         27.6603         27.6483         27.6321         27.6118         27.5873         27.5583         27.5249         27.4869    
          27.4440         27.3962         27.3431         27.2845         27.2201         27.1495         27.0724         26.9882         26.8965         26.7967    
          26.6878         26.5692         26.4396         26.2976         26.1416         25.9692         25.7772         25.5611         25.3141         25.0242    
  13      27.6723         27.6683         27.6603         27.6483         27.6321         27.6118         27.5873         27.5583         27.5249         27.4869    
          27.4440         27.3962         27.3431         27.2845         27.2201         27.1495         27.0724         26.9882         26.8965         26.7967    
          26.6878         26.5692         26.4396         26.2976         26.1416         25.9692         25.7772         25.5611         25.3141         25.0242    
  14      27.6723         27.6683         27.6603         27.6483         27.6321         27.6118         27.5873         27.5583         27.5249         27.4869    
          27.4440         27.3962         27.3431         27.2845         27.2201         27.1495         27.0724         26.9882         26.8965         26.7967    
          26.6878         26.5692         26.4396         26.2976         26.1416         25.9692         25.7772         25.5611         25.3141         25.0242    
  15      27.6723         27.6683         27.6603         27.6483         27.6321         27.6118         27.5873         27.5583         27.5249         27.4869    
          27.4440         27.3962         27.3431         27.2845         27.2201         27.1495         27.0724         26.9882         26.8965         26.7967    
          26.6878         26.5692         26.4396         26.2976         26.1416         25.9692         25.7772         25.5611         25.3141         25.0242    
  16      27.6723         27.6683         27.6603         27.6483         27.6321         27.6118         27.5873         27.5583         27.5249         27.4869    
          27.4440         27.3962         27.3431         27.2845         27.2201         27.1495         27.0724         26.9882         26.8965         26.7967    
          26.6878         26.5692         26.4396         26.2976         26.1416         25.9692         25.7772         25.5611         25.3141         25.0242    
  17      27.6723         27.6683         27.6603         27.6483         27.6321         27.6118         27.5873         27.5583         27.5249         27.4869    
          27.4440         27.3962         27.3431         27.2845         27.2201         27.1495         27.0724         26.9882         26.8965         26.7967    
          26.6878         26.5692         26.4396         26.2976         26.1416         25.9692         25.7772         25.5611         25.3141         25.0242    
  18      27.6723         27.6683         27.6603         27.6483         27.6321         27.6118         27.5873         27.5583         27.5249         27.4869    
          27.4440         27.3962         27.3431         27.2845         27.2201         27.1495         27.0724         26.9882         26.8965         26.7967    
          26.6878         26.5692         26.4396         26.2976         26.1416         25.9692         25.7772         25.5611         25.3141         25.0242    
  19      27.6723         27.6683         27.6603         27.6483         27.6321         27.6118         27.5873         27.5583         27.5249         27.4869    
          27.4440         27.3962         27.3431         27.2845         27.2201         27.1495         27.0724         26.9882         26.8965         26.7967    
          26.6878         26.5692         26.4396         26.2976         26.1416         25.9692         25.7772         25.5611         25.3141         25.0242    
  20      27.6723         27.6683         27.6603         27.6483         27.6321         27.6118         27.5873         27.5583         27.5249         27.4869    
          27.4440         27.3962         27.3431         27.2845         27.2201         27.1495         27.0724         26.9882         26.8965         26.7967    
          26.6878         26.5692         26.4396         26.2976         26.1416         25.9692         25.7772         25.5611         25.3141         25.0242    
  21      27.6723         27.6683         27.6603         27.6483         27.6321         27.6118         27.5873         27.5583         27.5249         27.4869    
          27.4440         27.3962         27.3431         27.2845         27.2201         27.1495         27.0724         26.9882         26.8965         26.7967    
          26.6878         26.5692         26.4396         26.2976         26.1416         25.9692         25.7772         25.5611         25.3141         25.0242    
  22      27.6723         27.6683         27.6603         27.6483         27.6321         27.6118         27.5873         27.5583         27.5249         27.4869    
          27.4440         27.3962         27.3431         27.2845         27.2201         27.1495         27.0724         26.9882         26.8965         26.7967    
          26.6878         26.5692         26.4396         26.2976         26.1416         25.9692         25.7772         25.5611         25.3141         25.0242    
  23      27.6723         27.6683         27.6603         27.6483         27.6321         27.6118         27.5873         27.5583         27.5249         27.4869    
          27.4440         27.3962         27.3431         27.2845         27.2201         27.1495         27.0724         26.9882         26.8965         26.7967    
          26.6878         26.5692         26.4396         26.2976         26.1416         25.9692         25.7772         25.5611         25.3141         25.0242    
  24      27.6723         27.6683         27.6603         27.6483         27.6321         27.6118         27.5873         27.5583         27.5249         27.4869    
          27.4440         27.3962         27.3431         27.2845         27.2201         27.1495         27.0724         26.9882         26.8965         26.7967    
          26.6878         26.5692         26.4396         26.2976         26.1416         25.9692         25.7772         25.5611         25.3141         25.0242    
  25      27.6723         27.6683         27.6603         27.6483         27.6321         27.6118         27.5873         27.5583         27.5249         27.4869    
          27.4440         27.3962         27.3431         27.2845         27.2201         27.1495         27.0724         26.9882         26.8965         26.7966    
          26.6878         26.5692         26.4396         26.2976         26.1416         25.9692         25.7772         25.5611         25.3141         25.0242    
  26      27.6723         27.6683         27.6603         27.6483         27.6321         27.6118         27.5873         27.5583         27.5249         27.4869    
          27.4440         27.3962         27.3431         27.2845         27.2201         27.1495         27.0724         26.9882         26.8965         26.7966    
          26.6878         26.5692         26.4396         26.2976         26.1416         25.9692         25.7772         25.5611         25.3141         25.0242    
  27      27.6723         27.6683         27.6603         27.6483         27.6321         27.6118         27.5873         27.5583         27.5249         27.4869    
          27.4440         27.3962         27.3431         27.2845         27.2201         27.1495         27.0724         26.9882         26.8965         26.7966    
          26.6878         26.5692         26.4396         26.2976         26.1416         25.9692         25.7772         25.5611         25.3140         25.0242    
  28      27.6723         27.6683         27.6603         27.6483         27.6321         27.6118         27.5873         27.5583         27.5249         27.4869    
          27.4440         27.3962         27.3431         27.2845         27.2201         27.1495         27.0724         26.9882         26.8965         26.7966    
          26.6878         26.5692         26.4396         26.2976         26.1416         25.9692         25.7772         25.5611         25.3140         25.0242    
  29      27.6723         27.6683         27.6603         27.6483         27.6321         27.6118         27.5873         27.5583         27.5249         27.4869    
          27.4440         27.3962         27.3431         27.2845         27.2201         27.1495         27.0724         26.9882         26.8965         26.7966    
          26.6878         26.5692         26.4396         26.2976         26.1416         25.9692         25.7772         25.5611         25.3140         25.0242    
  30      27.6723         27.6683         27.6603         27.6483         27.6321         27.6118         27.5873         27.5583         27.5249         27.4869    
          27.4440         27.3962         27.3431         27.2845         27.2201         27.1495         27.0724         26.9882         26.8965         26.7966    
          26.6878         26.5692         26.4396         26.2976         26.1416         25.9692         25.7772         25.5611         25.3141         25.0242    

 HEAD WILL BE SAVED ON UNIT 1019 AT END OF TIME STEP   10, STRESS PERIOD   34


  VOLUME BUDGET FOR ENTIRE MODEL AT END OF TIME STEP   10, STRESS PERIOD  34
  ---------------------------------------------------------------------------------------------------

     CUMULATIVE VOLUME      L**3       RATES FOR THIS TIME STEP      L**3/T          PACKAGE NAME    
     ------------------                 ------------------------                     ----------------

           IN:                                      IN:
           ---                                      ---
              STO-SS =          55.2136                STO-SS =           0.0000     STORAGE         
              STO-SY =       35561.5554                STO-SY =           0.0000     STORAGE         
                 RCH =      158626.0996                   RCH =         190.6849     RCHA            
                 CHD =        2029.0190                   CHD =           0.0000     CHD             

            TOTAL IN =      196271.8876              TOTAL IN =         190.6849

          OUT:                                     OUT:
          ----                                     ----
              STO-SS =          44.6985                STO-SS =       4.5065E-02     STORAGE         
              STO-SY =       29172.7245                STO-SY =          28.4219     STORAGE         
                 RCH =           0.0000                   RCH =           0.0000     RCHA            
                 CHD =      167053.8866                   CHD =         162.2311     CHD             

           TOTAL OUT =      196271.3096             TOTAL OUT =         190.6981

            IN - OUT =           0.5779              IN - OUT =      -1.3220E-02

 PERCENT DISCREPANCY =           0.00     PERCENT DISCREPANCY =          -0.01




         TIME SUMMARY AT END OF TIME STEP   10 IN STRESS PERIOD   34
                    SECONDS     MINUTES      HOURS       DAYS        YEARS
                    -----------------------------------------------------------
   TIME STEP LENGTH 2.59200E+05  4320.0      72.000      3.0000     8.21355E-03
 STRESS PERIOD TIME 2.59200E+06  43200.      720.00      30.000     8.21355E-02
         TOTAL TIME 8.56224E+07 1.42704E+06  23784.      991.00      2.7132    

 OUTPUT CONTROL FOR STRESS PERIOD 35 IS REPEATED USING SETTINGS FROM A PREVIOUS STRESS PERIOD.


 STRESS PERIOD 35 IS TRANSIENT


                 RECHARGE =  0.2465750E-02
 UBDSV1 SAVING           STO-SS ON UNIT   1018 AT TIME STEP      1, STRESS PERIOD     35
 UBDSV1 SAVING           STO-SY ON UNIT   1018 AT TIME STEP      1, STRESS PERIOD     35
 UBDSV1 SAVING     FLOW-JA-FACE ON UNIT   1018 AT TIME STEP      1, STRESS PERIOD     35
 UBDSV06 SAVING              RCH IN MODEL TEST_TRANS       PACKAGE TEST_TRANS      CONNECTED TO MODEL TEST_TRANS       PACKAGE RCHA             ON UNIT   1018 AT TIME STEP      1, STRESS PERIOD     35
 UBDSV06 SAVING              CHD IN MODEL TEST_TRANS       PACKAGE TEST_TRANS      CONNECTED TO MODEL TEST_TRANS       PACKAGE CHD              ON UNIT   1018 AT TIME STEP      1, STRESS PERIOD     35
1
  HEAD IN LAYER   1 AT END OF TIME STEP   1 IN STRESS PERIOD   35
  ---------------------------------------------------------------------------

                1               2               3               4               5               6               7               8               9              10
               11              12              13              14              15              16              17              18              19              20
               21              22              23              24              25              26              27              28              29              30
 ................................................................................................................................................................
   1      27.6848         27.6808         27.6727         27.6606         27.6443         27.6238         27.5990         27.5699         27.5362         27.4979    
          27.4547         27.4065         27.3530         27.2940         27.2292         27.1583         27.0808         26.9962         26.9041         26.8038    
          26.6946         26.5755         26.4454         26.3029         26.1463         25.9729         25.7796         25.5612         25.3097         25.0108    
   2      27.6848         27.6808         27.6727         27.6606         27.6443         27.6238         27.5990         27.5699         27.5362         27.4979    
          27.4547         27.4065         27.3530         27.2940         27.2292         27.1583         27.0808         26.9962         26.9041         26.8038    
          26.6946         26.5755         26.4454         26.3029         26.1463         25.9729         25.7796         25.5612         25.3097         25.0108    
   3      27.6848         27.6808         27.6727         27.6606         27.6443         27.6238         27.5990         27.5699         27.5362         27.4979    
          27.4547         27.4065         27.3530         27.2940         27.2292         27.1583         27.0808         26.9962         26.9041         26.8038    
          26.6946         26.5755         26.4454         26.3029         26.1462         25.9729         25.7796         25.5612         25.3097         25.0108    
   4      27.6848         27.6808         27.6727         27.6606         27.6443         27.6238         27.5990         27.5699         27.5362         27.4979    
          27.4547         27.4065         27.3530         27.2940         27.2292         27.1583         27.0808         26.9962         26.9041         26.8038    
          26.6946         26.5755         26.4454         26.3029         26.1462         25.9729         25.7796         25.5612         25.3097         25.0108    
   5      27.6848         27.6808         27.6727         27.6606         27.6443         27.6238         27.5990         27.5699         27.5362         27.4979    
          27.4547         27.4065         27.3530         27.2940         27.2292         27.1583         27.0808         26.9962         26.9041         26.8038    
          26.6946         26.5755         26.4454         26.3029         26.1462         25.9729         25.7796         25.5612         25.3097         25.0108    
   6      27.6848         27.6808         27.6727         27.6606         27.6443         27.6238         27.5990         27.5699         27.5362         27.4979    
          27.4547         27.4065         27.3530         27.2940         27.2292         27.1583         27.0808         26.9962         26.9041         26.8038    
          26.6946         26.5755         26.4454         26.3029         26.1462         25.9729         25.7796         25.5612         25.3097         25.0108    
   7      27.6848         27.6808         27.6727         27.6606         27.6443         27.6238         27.5990         27.5699         27.5362         27.4979    
          27.4547         27.4065         27.3530         27.2940         27.2292         27.1583         27.0808         26.9962         26.9041         26.8038    
          26.6946         26.5755         26.4454         26.3029         26.1462         25.9729         25.7796         25.5612         25.3097         25.0108    
   8      27.6848         27.6808         27.6727         27.6606         27.6443         27.6238         27.5990         27.5699         27.5362         27.4979    
          27.4547         27.4065         27.3530         27.2940         27.2292         27.1583         27.0808         26.9962         26.9041         26.8038    
          26.6946         26.5755         26.4454         26.3029         26.1462         25.9729         25.7796         25.5612         25.3097         25.0108    
   9      27.6848         27.6808         27.6727         27.6606         27.6443         27.6238         27.5990         27.5699         27.5362         27.4979    
          27.4547         27.4065         27.3530         27.2940         27.2292         27.1583         27.0808         26.9962         26.9041         26.8038    
          26.6946         26.5755         26.4454         26.3029         26.1462         25.9729         25.7796         25.5612         25.3097         25.0108    
  10      27.6848         27.6808         27.6727         27.6606         27.6443         27.6238         27.5990         27.5699         27.5362         27.4979    
          27.4547         27.4065         27.3530         27.2940         27.2292         27.1583         27.0808         26.9962         26.9041         26.8038    
          26.6946         26.5755         26.4454         26.3029         26.1462         25.9729         25.7796         25.5612         25.3097         25.0108    
  11      27.6848         27.6808         27.6727         27.6606         27.6443         27.6238         27.5990         27.5699         27.5362         27.4979    
          27.4547         27.4065         27.3530         27.2940         27.2292         27.1583         27.0808         26.9962         26.9041         26.8038    
          26.6946         26.5755         26.4454         26.3029         26.1462         25.9729         25.7796         25.5612         25.3097         25.0108    
  12      27.6848         27.6808         27.6727         27.6606         27.6443         27.6238         27.5990         27.5699         27.5362         27.4979    
          27.4547         27.4065         27.3530         27.2940         27.2292         27.1583         27.0808         26.9962         26.9041         26.8038    
          26.6946         26.5755         26.4454         26.3029         26.1462         25.9729         25.7796         25.5612         25.3097         25.0108    
  13      27.6848         27.6808         27.6727         27.6606         27.6443         27.6238         27.5990         27.5699         27.5362         27.4979    
          27.4547         27.4065         27.3530         27.2940         27.2292         27.1583         27.0808         26.9962         26.9041         26.8038    
          26.6946         26.5755         26.4454         26.3029         26.1462         25.9729         25.7796         25.5612         25.3097         25.0108    
  14      27.6848         27.6808         27.6727         27.6606         27.6443         27.6238         27.5990         27.5699         27.5362         27.4979    
          27.4547         27.4065         27.3530         27.2940         27.2292         27.1583         27.0808         26.9962         26.9041         26.8038    
          26.6946         26.5755         26.4454         26.3029         26.1462         25.9729         25.7796         25.5612         25.3097         25.0108    
  15      27.6848         27.6808         27.6727         27.6606         27.6443         27.6238         27.5990         27.5699         27.5362         27.4979    
          27.4547         27.4065         27.3530         27.2940         27.2292         27.1583         27.0808         26.9962         26.9041         26.8038    
          26.6946         26.5755         26.4454         26.3029         26.1462         25.9729         25.7796         25.5612         25.3097         25.0108    
  16      27.6848         27.6808         27.6727         27.6606         27.6443         27.6238         27.5990         27.5699         27.5362         27.4979    
          27.4547         27.4065         27.3530         27.2940         27.2292         27.1583         27.0808         26.9962         26.9041         26.8038    
          26.6946         26.5755         26.4454         26.3029         26.1462         25.9729         25.7796         25.5612         25.3097         25.0108    
  17      27.6848         27.6808         27.6727         27.6606         27.6443         27.6238         27.5990         27.5699         27.5362         27.4979    
          27.4547         27.4065         27.3530         27.2940         27.2292         27.1583         27.0808         26.9962         26.9041         26.8038    
          26.6946         26.5755         26.4454         26.3029         26.1462         25.9729         25.7796         25.5612         25.3097         25.0108    
  18      27.6848         27.6808         27.6727         27.6606         27.6443         27.6238         27.5990         27.5699         27.5362         27.4979    
          27.4547         27.4065         27.3530         27.2940         27.2292         27.1583         27.0808         26.9962         26.9041         26.8038    
          26.6946         26.5755         26.4454         26.3029         26.1462         25.9729         25.7796         25.5612         25.3097         25.0108    
  19      27.6848         27.6808         27.6727         27.6606         27.6443         27.6238         27.5990         27.5699         27.5362         27.4978    
          27.4547         27.4065         27.3530         27.2940         27.2292         27.1583         27.0808         26.9962         26.9041         26.8038    
          26.6946         26.5755         26.4454         26.3029         26.1462         25.9729         25.7796         25.5612         25.3097         25.0108    
  20      27.6848         27.6808         27.6727         27.6606         27.6443         27.6238         27.5990         27.5699         27.5362         27.4978    
          27.4547         27.4065         27.3530         27.2940         27.2292         27.1583         27.0807         26.9962         26.9041         26.8038    
          26.6946         26.5755         26.4454         26.3029         26.1462         25.9729         25.7796         25.5612         25.3097         25.0108    
  21      27.6848         27.6808         27.6727         27.6606         27.6443         27.6238         27.5990         27.5699         27.5362         27.4978    
          27.4547         27.4065         27.3530         27.2940         27.2292         27.1583         27.0807         26.9962         26.9041         26.8038    
          26.6946         26.5755         26.4454         26.3029         26.1462         25.9729         25.7796         25.5612         25.3097         25.0108    
  22      27.6848         27.6808         27.6727         27.6606         27.6443         27.6238         27.5990         27.5699         27.5362         27.4978    
          27.4547         27.4065         27.3530         27.2940         27.2292         27.1583         27.0807         26.9962         26.9041         26.8038    
          26.6946         26.5755         26.4454         26.3029         26.1462         25.9729         25.7796         25.5612         25.3097         25.0108    
  23      27.6848         27.6808         27.6727         27.6606         27.6443         27.6238         27.5990         27.5699         27.5362         27.4978    
          27.4547         27.4065         27.3530         27.2940         27.2292         27.1583         27.0807         26.9962         26.9041         26.8038    
          26.6946         26.5755         26.4454         26.3029         26.1462         25.9729         25.7796         25.5612         25.3097         25.0108    
  24      27.6848         27.6808         27.6727         27.6606         27.6443         27.6238         27.5990         27.5699         27.5362         27.4978    
          27.4547         27.4065         27.3530         27.2940         27.2292         27.1583         27.0807         26.9962         26.9041         26.8038    
          26.6946         26.5755         26.4454         26.3029         26.1462         25.9729         25.7796         25.5612         25.3097         25.0108    
  25      27.6848         27.6808         27.6727         27.6606         27.6443         27.6238         27.5990         27.5699         27.5362         27.4978    
          27.4547         27.4065         27.3530         27.2940         27.2292         27.1583         27.0807         26.9962         26.9041         26.8038    
          26.6946         26.5755         26.4454         26.3029         26.1462         25.9729         25.7796         25.5612         25.3097         25.0108    
  26      27.6848         27.6808         27.6727         27.6606         27.6443         27.6238         27.5990         27.5699         27.5362         27.4978    
          27.4547         27.4065         27.3530         27.2940         27.2292         27.1583         27.0807         26.9962         26.9041         26.8038    
          26.6946         26.5755         26.4454         26.3029         26.1462         25.9729         25.7796         25.5612         25.3097         25.0108    
  27      27.6848         27.6808         27.6727         27.6606         27.6443         27.6238         27.5990         27.5699         27.5362         27.4978    
          27.4547         27.4065         27.3530         27.2940         27.2292         27.1583         27.0807         26.9962         26.9041         26.8038    
          26.6946         26.5755         26.4454         26.3029         26.1462         25.9729         25.7796         25.5612         25.3097         25.0108    
  28      27.6848         27.6808         27.6727         27.6606         27.6443         27.6238         27.5990         27.5699         27.5362         27.4978    
          27.4547         27.4065         27.3530         27.2940         27.2292         27.1583         27.0807         26.9962         26.9041         26.8038    
          26.6946         26.5755         26.4454         26.3029         26.1462         25.9729         25.7796         25.5612         25.3097         25.0108    
  29      27.6848         27.6808         27.6727         27.6606         27.6443         27.6238         27.5990         27.5699         27.5362         27.4978    
          27.4547         27.4065         27.3530         27.2940         27.2292         27.1583         27.0807         26.9962         26.9041         26.8038    
          26.6946         26.5755         26.4454         26.3029         26.1462         25.9729         25.7796         25.5611         25.3097         25.0108    
  30      27.6848         27.6808         27.6727         27.6606         27.6443         27.6238         27.5990         27.5699         27.5362         27.4978    
          27.4547         27.4065         27.3530         27.2940         27.2292         27.1583         27.0807         26.9962         26.9041         26.8038    
          26.6946         26.5755         26.4454         26.3029         26.1462         25.9729         25.7796         25.5611         25.3097         25.0108    

 HEAD WILL BE SAVED ON UNIT 1019 AT END OF TIME STEP    1, STRESS PERIOD   35



         TIME SUMMARY AT END OF TIME STEP    1 IN STRESS PERIOD   35
                    SECONDS     MINUTES      HOURS       DAYS        YEARS
                    -----------------------------------------------------------
   TIME STEP LENGTH 2.59200E+05  4320.0      72.000      3.0000     8.21355E-03
 STRESS PERIOD TIME 2.59200E+05  4320.0      72.000      3.0000     8.21355E-03
         TOTAL TIME 8.58816E+07 1.43136E+06  23856.      994.00      2.7214    
 UBDSV1 SAVING           STO-SS ON UNIT   1018 AT TIME STEP      2, STRESS PERIOD     35
 UBDSV1 SAVING           STO-SY ON UNIT   1018 AT TIME STEP      2, STRESS PERIOD     35
 UBDSV1 SAVING     FLOW-JA-FACE ON UNIT   1018 AT TIME STEP      2, STRESS PERIOD     35
 UBDSV06 SAVING              RCH IN MODEL TEST_TRANS       PACKAGE TEST_TRANS      CONNECTED TO MODEL TEST_TRANS       PACKAGE RCHA             ON UNIT   1018 AT TIME STEP      2, STRESS PERIOD     35
 UBDSV06 SAVING              CHD IN MODEL TEST_TRANS       PACKAGE TEST_TRANS      CONNECTED TO MODEL TEST_TRANS       PACKAGE CHD              ON UNIT   1018 AT TIME STEP      2, STRESS PERIOD     35

 HEAD WILL BE SAVED ON UNIT 1019 AT END OF TIME STEP    2, STRESS PERIOD   35
 UBDSV1 SAVING           STO-SS ON UNIT   1018 AT TIME STEP      3, STRESS PERIOD     35
 UBDSV1 SAVING           STO-SY ON UNIT   1018 AT TIME STEP      3, STRESS PERIOD     35
 UBDSV1 SAVING     FLOW-JA-FACE ON UNIT   1018 AT TIME STEP      3, STRESS PERIOD     35
 UBDSV06 SAVING              RCH IN MODEL TEST_TRANS       PACKAGE TEST_TRANS      CONNECTED TO MODEL TEST_TRANS       PACKAGE RCHA             ON UNIT   1018 AT TIME STEP      3, STRESS PERIOD     35
 UBDSV06 SAVING              CHD IN MODEL TEST_TRANS       PACKAGE TEST_TRANS      CONNECTED TO MODEL TEST_TRANS       PACKAGE CHD              ON UNIT   1018 AT TIME STEP      3, STRESS PERIOD     35

 HEAD WILL BE SAVED ON UNIT 1019 AT END OF TIME STEP    3, STRESS PERIOD   35
 UBDSV1 SAVING           STO-SS ON UNIT   1018 AT TIME STEP      4, STRESS PERIOD     35
 UBDSV1 SAVING           STO-SY ON UNIT   1018 AT TIME STEP      4, STRESS PERIOD     35
 UBDSV1 SAVING     FLOW-JA-FACE ON UNIT   1018 AT TIME STEP      4, STRESS PERIOD     35
 UBDSV06 SAVING              RCH IN MODEL TEST_TRANS       PACKAGE TEST_TRANS      CONNECTED TO MODEL TEST_TRANS       PACKAGE RCHA             ON UNIT   1018 AT TIME STEP      4, STRESS PERIOD     35
 UBDSV06 SAVING              CHD IN MODEL TEST_TRANS       PACKAGE TEST_TRANS      CONNECTED TO MODEL TEST_TRANS       PACKAGE CHD              ON UNIT   1018 AT TIME STEP      4, STRESS PERIOD     35

 HEAD WILL BE SAVED ON UNIT 1019 AT END OF TIME STEP    4, STRESS PERIOD   35
 UBDSV1 SAVING           STO-SS ON UNIT   1018 AT TIME STEP      5, STRESS PERIOD     35
 UBDSV1 SAVING           STO-SY ON UNIT   1018 AT TIME STEP      5, STRESS PERIOD     35
 UBDSV1 SAVING     FLOW-JA-FACE ON UNIT   1018 AT TIME STEP      5, STRESS PERIOD     35
 UBDSV06 SAVING              RCH IN MODEL TEST_TRANS       PACKAGE TEST_TRANS      CONNECTED TO MODEL TEST_TRANS       PACKAGE RCHA             ON UNIT   1018 AT TIME STEP      5, STRESS PERIOD     35
 UBDSV06 SAVING              CHD IN MODEL TEST_TRANS       PACKAGE TEST_TRANS      CONNECTED TO MODEL TEST_TRANS       PACKAGE CHD              ON UNIT   1018 AT TIME STEP      5, STRESS PERIOD     35

 HEAD WILL BE SAVED ON UNIT 1019 AT END OF TIME STEP    5, STRESS PERIOD   35
 UBDSV1 SAVING           STO-SS ON UNIT   1018 AT TIME STEP      6, STRESS PERIOD     35
 UBDSV1 SAVING           STO-SY ON UNIT   1018 AT TIME STEP      6, STRESS PERIOD     35
 UBDSV1 SAVING     FLOW-JA-FACE ON UNIT   1018 AT TIME STEP      6, STRESS PERIOD     35
 UBDSV06 SAVING              RCH IN MODEL TEST_TRANS       PACKAGE TEST_TRANS      CONNECTED TO MODEL TEST_TRANS       PACKAGE RCHA             ON UNIT   1018 AT TIME STEP      6, STRESS PERIOD     35
 UBDSV06 SAVING              CHD IN MODEL TEST_TRANS       PACKAGE TEST_TRANS      CONNECTED TO MODEL TEST_TRANS       PACKAGE CHD              ON UNIT   1018 AT TIME STEP      6, STRESS PERIOD     35

 HEAD WILL BE SAVED ON UNIT 1019 AT END OF TIME STEP    6, STRESS PERIOD   35
 UBDSV1 SAVING           STO-SS ON UNIT   1018 AT TIME STEP      7, STRESS PERIOD     35
 UBDSV1 SAVING           STO-SY ON UNIT   1018 AT TIME STEP      7, STRESS PERIOD     35
 UBDSV1 SAVING     FLOW-JA-FACE ON UNIT   1018 AT TIME STEP      7, STRESS PERIOD     35
 UBDSV06 SAVING              RCH IN MODEL TEST_TRANS       PACKAGE TEST_TRANS      CONNECTED TO MODEL TEST_TRANS       PACKAGE RCHA             ON UNIT   1018 AT TIME STEP      7, STRESS PERIOD     35
 UBDSV06 SAVING              CHD IN MODEL TEST_TRANS       PACKAGE TEST_TRANS      CONNECTED TO MODEL TEST_TRANS       PACKAGE CHD              ON UNIT   1018 AT TIME STEP      7, STRESS PERIOD     35

 HEAD WILL BE SAVED ON UNIT 1019 AT END OF TIME STEP    7, STRESS PERIOD   35
 UBDSV1 SAVING           STO-SS ON UNIT   1018 AT TIME STEP      8, STRESS PERIOD     35
 UBDSV1 SAVING           STO-SY ON UNIT   1018 AT TIME STEP      8, STRESS PERIOD     35
 UBDSV1 SAVING     FLOW-JA-FACE ON UNIT   1018 AT TIME STEP      8, STRESS PERIOD     35
 UBDSV06 SAVING              RCH IN MODEL TEST_TRANS       PACKAGE TEST_TRANS      CONNECTED TO MODEL TEST_TRANS       PACKAGE RCHA             ON UNIT   1018 AT TIME STEP      8, STRESS PERIOD     35
 UBDSV06 SAVING              CHD IN MODEL TEST_TRANS       PACKAGE TEST_TRANS      CONNECTED TO MODEL TEST_TRANS       PACKAGE CHD              ON UNIT   1018 AT TIME STEP      8, STRESS PERIOD     35

 HEAD WILL BE SAVED ON UNIT 1019 AT END OF TIME STEP    8, STRESS PERIOD   35
 UBDSV1 SAVING           STO-SS ON UNIT   1018 AT TIME STEP      9, STRESS PERIOD     35
 UBDSV1 SAVING           STO-SY ON UNIT   1018 AT TIME STEP      9, STRESS PERIOD     35
 UBDSV1 SAVING     FLOW-JA-FACE ON UNIT   1018 AT TIME STEP      9, STRESS PERIOD     35
 UBDSV06 SAVING              RCH IN MODEL TEST_TRANS       PACKAGE TEST_TRANS      CONNECTED TO MODEL TEST_TRANS       PACKAGE RCHA             ON UNIT   1018 AT TIME STEP      9, STRESS PERIOD     35
 UBDSV06 SAVING              CHD IN MODEL TEST_TRANS       PACKAGE TEST_TRANS      CONNECTED TO MODEL TEST_TRANS       PACKAGE CHD              ON UNIT   1018 AT TIME STEP      9, STRESS PERIOD     35

 HEAD WILL BE SAVED ON UNIT 1019 AT END OF TIME STEP    9, STRESS PERIOD   35
 UBDSV1 SAVING           STO-SS ON UNIT   1018 AT TIME STEP     10, STRESS PERIOD     35
 UBDSV1 SAVING           STO-SY ON UNIT   1018 AT TIME STEP     10, STRESS PERIOD     35
 UBDSV1 SAVING     FLOW-JA-FACE ON UNIT   1018 AT TIME STEP     10, STRESS PERIOD     35
 UBDSV06 SAVING              RCH IN MODEL TEST_TRANS       PACKAGE TEST_TRANS      CONNECTED TO MODEL TEST_TRANS       PACKAGE RCHA             ON UNIT   1018 AT TIME STEP     10, STRESS PERIOD     35
 UBDSV06 SAVING              CHD IN MODEL TEST_TRANS       PACKAGE TEST_TRANS      CONNECTED TO MODEL TEST_TRANS       PACKAGE CHD              ON UNIT   1018 AT TIME STEP     10, STRESS PERIOD     35
1
  HEAD IN LAYER   1 AT END OF TIME STEP  10 IN STRESS PERIOD   35
  ---------------------------------------------------------------------------

                1               2               3               4               5               6               7               8               9              10
               11              12              13              14              15              16              17              18              19              20
               21              22              23              24              25              26              27              28              29              30
 ................................................................................................................................................................
   1      27.7865         27.7823         27.7737         27.7608         27.7436         27.7219         27.6957         27.6649         27.6293         27.5889    
          27.5435         27.4928         27.4368         27.3750         27.3072         27.2331         27.1523         27.0643         26.9686         26.8644    
          26.7511         26.6277         26.4930         26.3454         26.1832         26.0038         25.8037         25.5777         25.3180         25.0108    
   2      27.7865         27.7823         27.7737         27.7608         27.7436         27.7219         27.6957         27.6649         27.6293         27.5889    
          27.5435         27.4928         27.4368         27.3750         27.3072         27.2331         27.1523         27.0643         26.9686         26.8644    
          26.7511         26.6277         26.4930         26.3454         26.1832         26.0038         25.8037         25.5777         25.3180         25.0108    
   3      27.7865         27.7823         27.7737         27.7608         27.7436         27.7219         27.6957         27.6649         27.6293         27.5889    
          27.5435         27.4928         27.4368         27.3750         27.3072         27.2331         27.1523         27.0643         26.9686         26.8644    
          26.7511         26.6277         26.4930         26.3454         26.1832         26.0038         25.8037         25.5777         25.3180         25.0108    
   4      27.7865         27.7823         27.7737         27.7608         27.7435         27.7219         27.6957         27.6649         27.6293         27.5889    
          27.5435         27.4928         27.4368         27.3750         27.3072         27.2331         27.1523         27.0643         26.9686         26.8644    
          26.7511         26.6277         26.4930         26.3454         26.1832         26.0038         25.8037         25.5777         25.3180         25.0108    
   5      27.7865         27.7823         27.7737         27.7608         27.7435         27.7219         27.6957         27.6649         27.6293         27.5889    
          27.5435         27.4928         27.4368         27.3750         27.3072         27.2331         27.1523         27.0643         26.9686         26.8644    
          26.7511         26.6277         26.4930         26.3454         26.1832         26.0038         25.8037         25.5777         25.3180         25.0108    
   6      27.7865         27.7823         27.7737         27.7608         27.7435         27.7219         27.6957         27.6649         27.6293         27.5889    
          27.5435         27.4928         27.4368         27.3750         27.3072         27.2331         27.1523         27.0643         26.9686         26.8644    
          26.7511         26.6277         26.4930         26.3454         26.1832         26.0038         25.8037         25.5777         25.3180         25.0108    
   7      27.7865         27.7823         27.7737         27.7608         27.7435         27.7219         27.6957         27.6649         27.6293         27.5889    
          27.5435         27.4928         27.4368         27.3750         27.3072         27.2331         27.1523         27.0643         26.9686         26.8644    
          26.7511         26.6277         26.4930         26.3454         26.1832         26.0038         25.8037         25.5777         25.3180         25.0108    
   8      27.7865         27.7823         27.7737         27.7608         27.7435         27.7219         27.6957         27.6649         27.6293         27.5889    
          27.5435         27.4928         27.4368         27.3750         27.3072         27.2331         27.1523         27.0643         26.9686         26.8644    
          26.7511         26.6277         26.4930         26.3454         26.1832         26.0038         25.8037         25.5777         25.3180         25.0108    
   9      27.7865         27.7823         27.7737         27.7608         27.7435         27.7219         27.6957         27.6649         27.6293         27.5889    
          27.5435         27.4928         27.4368         27.3750         27.3072         27.2331         27.1523         27.0643         26.9686         26.8644    
          26.7511         26.6277         26.4930         26.3454         26.1832         26.0038         25.8037         25.5777         25.3180         25.0108    
  10      27.7865         27.7823         27.7737         27.7608         27.7435         27.7219         27.6957         27.6649         27.6293         27.5889    
          27.5435         27.4928         27.4368         27.3750         27.3072         27.2331         27.1523         27.0643         26.9686         26.8644    
          26.7511         26.6277         26.4930         26.3454         26.1832         26.0038         25.8037         25.5777         25.3180         25.0108    
  11      27.7865         27.7823         27.7737         27.7608         27.7435         27.7219         27.6957         27.6649         27.6293         27.5889    
          27.5435         27.4928         27.4368         27.3750         27.3072         27.2331         27.1523         27.0643         26.9686         26.8644    
          26.7511         26.6277         26.4930         26.3454         26.1832         26.0038         25.8037         25.5777         25.3180         25.0108    
  12      27.7865         27.7823         27.7737         27.7608         27.7435         27.7219         27.6957         27.6648         27.6293         27.5889    
          27.5435         27.4928         27.4368         27.3750         27.3072         27.2331         27.1523         27.0643         26.9686         26.8644    
          26.7511         26.6277         26.4930         26.3454         26.1832         26.0038         25.8037         25.5777         25.3180         25.0108    
  13      27.7865         27.7823         27.7737         27.7608         27.7435         27.7219         27.6957         27.6648         27.6293         27.5889    
          27.5435         27.4928         27.4368         27.3750         27.3072         27.2331         27.1523         27.0643         26.9686         26.8644    
          26.7511         26.6277         26.4930         26.3454         26.1832         26.0038         25.8037         25.5777         25.3180         25.0108    
  14      27.7865         27.7823         27.7737         27.7608         27.7435         27.7219         27.6957         27.6648         27.6293         27.5889    
          27.5435         27.4928         27.4368         27.3750         27.3072         27.2331         27.1523         27.0643         26.9686         26.8644    
          26.7511         26.6277         26.4930         26.3454         26.1832         26.0038         25.8037         25.5777         25.3180         25.0108    
  15      27.7865         27.7823         27.7737         27.7608         27.7435         27.7219         27.6957         27.6648         27.6293         27.5889    
          27.5435         27.4928         27.4368         27.3750         27.3072         27.2331         27.1523         27.0643         26.9686         26.8644    
          26.7511         26.6277         26.4930         26.3454         26.1832         26.0038         25.8037         25.5777         25.3180         25.0108    
  16      27.7865         27.7823         27.7737         27.7608         27.7435         27.7219         27.6957         27.6648         27.6293         27.5889    
          27.5435         27.4928         27.4368         27.3750         27.3072         27.2331         27.1523         27.0643         26.9686         26.8644    
          26.7511         26.6277         26.4930         26.3454         26.1832         26.0038         25.8037         25.5777         25.3180         25.0108    
  17      27.7865         27.7823         27.7737         27.7608         27.7435         27.7219         27.6957         27.6648         27.6293         27.5889    
          27.5435         27.4928         27.4368         27.3750         27.3072         27.2331         27.1523         27.0643         26.9686         26.8644    
          26.7511         26.6277         26.4930         26.3454         26.1832         26.0038         25.8037         25.5777         25.3180         25.0108    
  18      27.7865         27.7823         27.7737         27.7608         27.7435         27.7219         27.6957         27.6648         27.6293         27.5889    
          27.5435         27.4928         27.4368         27.3750         27.3072         27.2331         27.1523         27.0643         26.9686         26.8644    
          26.7511         26.6277         26.4930         26.3454         26.1832         26.0038         25.8036         25.5777         25.3180         25.0108    
  19      27.7865         27.7823         27.7737         27.7608         27.7435         27.7219         27.6957         27.6648         27.6293         27.5889    
          27.5435         27.4928         27.4368         27.3750         27.3072         27.2331         27.1523         27.0643         26.9686         26.8644    
          26.7511         26.6277         26.4930         26.3454         26.1832         26.0038         25.8036         25.5777         25.3180         25.0108    
  20      27.7865         27.7823         27.7737         27.7608         27.7435         27.7219         27.6957         27.6648         27.6293         27.5889    
          27.5435         27.4928         27.4368         27.3750         27.3072         27.2331         27.1523         27.0643         26.9686         26.8644    
          26.7511         26.6277         26.4930         26.3454         26.1832         26.0038         25.8036         25.5777         25.3180         25.0108    
  21      27.7865         27.7823         27.7737         27.7608         27.7435         27.7219         27.6957         27.6648         27.6293         27.5889    
          27.5435         27.4928         27.4368         27.3750         27.3072         27.2331         27.1523         27.0643         26.9686         26.8644    
          26.7511         26.6277         26.4930         26.3454         26.1832         26.0038         25.8036         25.5777         25.3180         25.0108    
  22      27.7865         27.7823         27.7737         27.7608         27.7435         27.7219         27.6957         27.6648         27.6293         27.5889    
          27.5435         27.4928         27.4368         27.3750         27.3072         27.2331         27.1523         27.0643         26.9686         26.8644    
          26.7511         26.6277         26.4930         26.3454         26.1832         26.0038         25.8036         25.5777         25.3180         25.0108    
  23      27.7865         27.7823         27.7737         27.7608         27.7435         27.7219         27.6957         27.6648         27.6293         27.5889    
          27.5435         27.4928         27.4368         27.3750         27.3072         27.2331         27.1523         27.0643         26.9686         26.8644    
          26.7511         26.6277         26.4930         26.3454         26.1832         26.0038         25.8036         25.5777         25.3180         25.0108    
  24      27.7865         27.7823         27.7737         27.7608         27.7435         27.7219         27.6957         27.6648         27.6293         27.5889    
          27.5435         27.4928         27.4368         27.3750         27.3072         27.2331         27.1523         27.0643         26.9686         26.8644    
          26.7511         26.6277         26.4930         26.3454         26.1832         26.0038         25.8036         25.5777         25.3180         25.0108    
  25      27.7865         27.7823         27.7737         27.7608         27.7435         27.7219         27.6957         27.6648         27.6293         27.5889    
          27.5435         27.4928         27.4368         27.3750         27.3072         27.2331         27.1523         27.0643         26.9686         26.8644    
          26.7511         26.6277         26.4930         26.3454         26.1832         26.0038         25.8036         25.5777         25.3180         25.0108    
  26      27.7865         27.7823         27.7737         27.7608         27.7435         27.7219         27.6957         27.6648         27.6293         27.5889    
          27.5435         27.4928         27.4368         27.3750         27.3072         27.2331         27.1523         27.0643         26.9686         26.8644    
          26.7511         26.6277         26.4930         26.3454         26.1832         26.0038         25.8036         25.5777         25.3180         25.0108    
  27      27.7865         27.7823         27.7737         27.7608         27.7435         27.7219         27.6957         27.6648         27.6293         27.5889    
          27.5435         27.4928         27.4368         27.3750         27.3072         27.2331         27.1523         27.0643         26.9686         26.8644    
          26.7511         26.6277         26.4930         26.3454         26.1832         26.0038         25.8036         25.5777         25.3180         25.0108    
  28      27.7865         27.7823         27.7737         27.7608         27.7435         27.7219         27.6957         27.6648         27.6293         27.5889    
          27.5435         27.4928         27.4368         27.3750         27.3072         27.2331         27.1523         27.0643         26.9686         26.8644    
          26.7511         26.6277         26.4930         26.3454         26.1832         26.0038         25.8036         25.5777         25.3180         25.0108    
  29      27.7865         27.7823         27.7737         27.7608         27.7435         27.7219         27.6957         27.6648         27.6293         27.5889    
          27.5435         27.4928         27.4368         27.3750         27.3072         27.2331         27.1523         27.0643         26.9686         26.8644    
          26.7511         26.6277         26.4930         26.3454         26.1832         26.0038         25.8036         25.5777         25.3180         25.0108    
  30      27.7865         27.7823         27.7737         27.7608         27.7435         27.7219         27.6957         27.6648         27.6293         27.5889    
          27.5435         27.4928         27.4368         27.3750         27.3072         27.2331         27.1523         27.0643         26.9686         26.8644    
          26.7511         26.6277         26.4930         26.3454         26.1832         26.0038         25.8036         25.5777         25.3180         25.0108    

 HEAD WILL BE SAVED ON UNIT 1019 AT END OF TIME STEP   10, STRESS PERIOD   35


  VOLUME BUDGET FOR ENTIRE MODEL AT END OF TIME STEP   10, STRESS PERIOD  35
  ---------------------------------------------------------------------------------------------------

     CUMULATIVE VOLUME      L**3       RATES FOR THIS TIME STEP      L**3/T          PACKAGE NAME    
     ------------------                 ------------------------                     ----------------

           IN:                                      IN:
           ---                                      ---
              STO-SS =          55.2173                STO-SS =           0.0000     STORAGE         
              STO-SY =       35564.2527                STO-SY =           0.0000     STORAGE         
                 RCH =      165061.7071                   RCH =         214.5203     RCHA            
                 CHD =        2029.0190                   CHD =           0.0000     CHD             

            TOTAL IN =      202710.1961              TOTAL IN =         214.5203

          OUT:                                     OUT:
          ----                                     ----
              STO-SS =          46.8730                STO-SS =       6.7982E-02     STORAGE         
              STO-SY =       30549.4368                STO-SY =          42.9694     STORAGE         
                 RCH =           0.0000                   RCH =           0.0000     RCHA            
                 CHD =      172113.3981                   CHD =         171.4854     CHD             

           TOTAL OUT =      202709.7079             TOTAL OUT =         214.5228

            IN - OUT =           0.4882              IN - OUT =      -2.5360E-03

 PERCENT DISCREPANCY =           0.00     PERCENT DISCREPANCY =          -0.00




         TIME SUMMARY AT END OF TIME STEP   10 IN STRESS PERIOD   35
                    SECONDS     MINUTES      HOURS       DAYS        YEARS
                    -----------------------------------------------------------
   TIME STEP LENGTH 2.59200E+05  4320.0      72.000      3.0000     8.21355E-03
 STRESS PERIOD TIME 2.59200E+06  43200.      720.00      30.000     8.21355E-02
         TOTAL TIME 8.82144E+07 1.47024E+06  24504.      1021.0      2.7953    

 OUTPUT CONTROL FOR STRESS PERIOD 36 IS REPEATED USING SETTINGS FROM A PREVIOUS STRESS PERIOD.


 STRESS PERIOD 36 IS TRANSIENT


                 RECHARGE =  0.2739730E-02
 UBDSV1 SAVING           STO-SS ON UNIT   1018 AT TIME STEP      1, STRESS PERIOD     36
 UBDSV1 SAVING           STO-SY ON UNIT   1018 AT TIME STEP      1, STRESS PERIOD     36
 UBDSV1 SAVING     FLOW-JA-FACE ON UNIT   1018 AT TIME STEP      1, STRESS PERIOD     36
 UBDSV06 SAVING              RCH IN MODEL TEST_TRANS       PACKAGE TEST_TRANS      CONNECTED TO MODEL TEST_TRANS       PACKAGE RCHA             ON UNIT   1018 AT TIME STEP      1, STRESS PERIOD     36
 UBDSV06 SAVING              CHD IN MODEL TEST_TRANS       PACKAGE TEST_TRANS      CONNECTED TO MODEL TEST_TRANS       PACKAGE CHD              ON UNIT   1018 AT TIME STEP      1, STRESS PERIOD     36
1
  HEAD IN LAYER   1 AT END OF TIME STEP   1 IN STRESS PERIOD   36
  ---------------------------------------------------------------------------

                1               2               3               4               5               6               7               8               9              10
               11              12              13              14              15              16              17              18              19              20
               21              22              23              24              25              26              27              28              29              30
 ................................................................................................................................................................
   1      27.8009         27.7966         27.7880         27.7750         27.7577         27.7359         27.7095         27.6786         27.6429         27.6023    
          27.5566         27.5057         27.4494         27.3873         27.3192         27.2447         27.1634         27.0748         26.9783         26.8731    
          26.7584         26.6329         26.4949         26.3422         26.1713         25.9770         25.7499         25.4724         25.1049         24.5204    
   2      27.8009         27.7966         27.7880         27.7750         27.7577         27.7359         27.7095         27.6786         27.6429         27.6023    
          27.5566         27.5057         27.4494         27.3873         27.3192         27.2447         27.1634         27.0748         26.9783         26.8731    
          26.7584         26.6329         26.4949         26.3422         26.1714         25.9770         25.7499         25.4724         25.1049         24.5204    
   3      27.8009         27.7966         27.7880         27.7750         27.7577         27.7359         27.7095         27.6786         27.6429         27.6023    
          27.5566         27.5057         27.4494         27.3873         27.3192         27.2447         27.1634         27.0748         26.9783         26.8731    
          26.7584         26.6329         26.4949         26.3422         26.1714         25.9770         25.7499         25.4724         25.1049         24.5204    
   4      27.8009         27.7966         27.7880         27.7750         27.7577         27.7359         27.7095         27.6786         27.6429         27.6023    
          27.5566         27.5057         27.4494         27.3873         27.3192         27.2447         27.1634         27.0748         26.9783         26.8731    
          26.7584         26.6329         26.4949         26.3422         26.1714         25.9770         25.7499         25.4724         25.1049         24.5204    
   5      27.8009         27.7966         27.7880         27.7750         27.7577         27.7359         27.7095         27.6786         27.6429         27.6023    
          27.5566         27.5057         27.4494         27.3873         27.3192         27.2447         27.1634         27.0748         26.9783         26.8731    
          26.7584         26.6329         26.4949         26.3422         26.1714         25.9770         25.7499         25.4724         25.1049         24.5204    
   6      27.8009         27.7966         27.7880         27.7750         27.7577         27.7359         27.7095         27.6786         27.6429         27.6023    
          27.5566         27.5057         27.4494         27.3873         27.3192         27.2447         27.1634         27.0748         26.9783         26.8731    
          26.7584         26.6329         26.4949         26.3422         26.1714         25.9770         25.7499         25.4724         25.1049         24.5204    
   7      27.8009         27.7966         27.7880         27.7750         27.7577         27.7359         27.7095         27.6786         27.6429         27.6023    
          27.5566         27.5057         27.4494         27.3873         27.3192         27.2447         27.1634         27.0748         26.9783         26.8731    
          26.7584         26.6329         26.4949         26.3422         26.1714         25.9770         25.7499         25.4724         25.1049         24.5204    
   8      27.8009         27.7966         27.7880         27.7750         27.7577         27.7359         27.7095         27.6786         27.6429         27.6023    
          27.5566         27.5057         27.4494         27.3873         27.3192         27.2447         27.1634         27.0748         26.9783         26.8731    
          26.7584         26.6329         26.4949         26.3422         26.1714         25.9770         25.7499         25.4724         25.1049         24.5204    
   9      27.8009         27.7966         27.7880         27.7750         27.7577         27.7359         27.7095         27.6786         27.6429         27.6023    
          27.5566         27.5057         27.4494         27.3873         27.3192         27.2447         27.1634         27.0748         26.9783         26.8731    
          26.7584         26.6329         26.4949         26.3422         26.1714         25.9770         25.7499         25.4724         25.1049         24.5204    
  10      27.8009         27.7966         27.7880         27.7750         27.7577         27.7359         27.7095         27.6786         27.6429         27.6023    
          27.5566         27.5057         27.4494         27.3873         27.3192         27.2447         27.1634         27.0748         26.9783         26.8731    
          26.7584         26.6329         26.4949         26.3422         26.1714         25.9770         25.7499         25.4724         25.1049         24.5204    
  11      27.8009         27.7966         27.7880         27.7750         27.7577         27.7359         27.7095         27.6786         27.6429         27.6023    
          27.5566         27.5057         27.4494         27.3873         27.3192         27.2447         27.1634         27.0748         26.9783         26.8731    
          26.7584         26.6329         26.4949         26.3422         26.1714         25.9770         25.7499         25.4724         25.1049         24.5204    
  12      27.8009         27.7966         27.7880         27.7750         27.7577         27.7359         27.7095         27.6786         27.6429         27.6023    
          27.5566         27.5057         27.4494         27.3873         27.3192         27.2447         27.1634         27.0748         26.9783         26.8731    
          26.7584         26.6329         26.4949         26.3422         26.1714         25.9770         25.7499         25.4724         25.1049         24.5204    
  13      27.8009         27.7966         27.7880         27.7750         27.7577         27.7359         27.7095         27.6786         27.6429         27.6023    
          27.5566         27.5057         27.4494         27.3873         27.3192         27.2447         27.1634         27.0748         26.9783         26.8731    
          26.7584         26.6329         26.4949         26.3422         26.1714         25.9770         25.7499         25.4724         25.1049         24.5204    
  14      27.8009         27.7966         27.7880         27.7750         27.7577         27.7359         27.7095         27.6786         27.6429         27.6023    
          27.5566         27.5057         27.4494         27.3873         27.3192         27.2447         27.1634         27.0748         26.9783         26.8731    
          26.7584         26.6329         26.4949         26.3422         26.1714         25.9770         25.7499         25.4724         25.1049         24.5204    
  15      27.8009         27.7966         27.7880         27.7750         27.7577         27.7359         27.7095         27.6786         27.6429         27.6023    
          27.5566         27.5057         27.4494         27.3873         27.3192         27.2447         27.1634         27.0748         26.9783         26.8731    
          26.7584         26.6329         26.4949         26.3422         26.1714         25.9770         25.7499         25.4724         25.1049         24.5204    
  16      27.8009         27.7966         27.7880         27.7750         27.7577         27.7359         27.7095         27.6786         27.6429         27.6023    
          27.5566         27.5057         27.4494         27.3873         27.3192         27.2447         27.1634         27.0748         26.9783         26.8731    
          26.7584         26.6329         26.4949         26.3422         26.1714         25.9770         25.7499         25.4724         25.1049         24.5204    
  17      27.8009         27.7966         27.7880         27.7750         27.7577         27.7359         27.7095         27.6786         27.6429         27.6023    
          27.5566         27.5057         27.4494         27.3873         27.3192         27.2447         27.1634         27.0748         26.9783         26.8731    
          26.7584         26.6329         26.4949         26.3422         26.1714         25.9770         25.7499         25.4724         25.1049         24.5204    
  18      27.8009         27.7966         27.7880         27.7750         27.7577         27.7359         27.7095         27.6786         27.6429         27.6023    
          27.5566         27.5057         27.4494         27.3873         27.3192         27.2447         27.1634         27.0748         26.9783         26.8731    
          26.7584         26.6329         26.4949         26.3422         26.1714         25.9770         25.7499         25.4724         25.1049         24.5204    
  19      27.8009         27.7966         27.7880         27.7750         27.7577         27.7359         27.7095         27.6786         27.6429         27.6023    
          27.5566         27.5057         27.4494         27.3873         27.3192         27.2447         27.1634         27.0748         26.9783         26.8731    
          26.7584         26.6329         26.4949         26.3422         26.1714         25.9770         25.7499         25.4724         25.1049         24.5204    
  20      27.8009         27.7966         27.7880         27.7750         27.7577         27.7359         27.7095         27.6786         27.6429         27.6023    
          27.5566         27.5057         27.4494         27.3873         27.3192         27.2447         27.1634         27.0748         26.9783         26.8731    
          26.7584         26.6329         26.4949         26.3422         26.1714         25.9770         25.7499         25.4724         25.1049         24.5204    
  21      27.8009         27.7966         27.7880         27.7750         27.7577         27.7359         27.7095         27.6786         27.6429         27.6023    
          27.5566         27.5057         27.4494         27.3873         27.3192         27.2447         27.1634         27.0748         26.9783         26.8731    
          26.7584         26.6329         26.4949         26.3422         26.1714         25.9770         25.7499         25.4724         25.1049         24.5204    
  22      27.8009         27.7966         27.7880         27.7750         27.7577         27.7359         27.7095         27.6786         27.6429         27.6023    
          27.5566         27.5057         27.4494         27.3873         27.3192         27.2447         27.1634         27.0748         26.9783         26.8731    
          26.7584         26.6329         26.4949         26.3422         26.1714         25.9770         25.7499         25.4724         25.1049         24.5204    
  23      27.8009         27.7966         27.7880         27.7750         27.7577         27.7359         27.7095         27.6786         27.6429         27.6023    
          27.5566         27.5057         27.4494         27.3873         27.3192         27.2447         27.1634         27.0748         26.9783         26.8731    
          26.7584         26.6329         26.4949         26.3422         26.1714         25.9770         25.7499         25.4724         25.1049         24.5204    
  24      27.8009         27.7966         27.7880         27.7750         27.7577         27.7359         27.7095         27.6786         27.6429         27.6023    
          27.5566         27.5057         27.4494         27.3873         27.3192         27.2447         27.1634         27.0748         26.9783         26.8731    
          26.7584         26.6329         26.4949         26.3422         26.1714         25.9770         25.7499         25.4724         25.1049         24.5204    
  25      27.8009         27.7966         27.7880         27.7750         27.7577         27.7359         27.7095         27.6786         27.6429         27.6023    
          27.5566         27.5057         27.4494         27.3873         27.3192         27.2447         27.1634         27.0748         26.9783         26.8731    
          26.7584         26.6329         26.4949         26.3422         26.1714         25.9770         25.7499         25.4724         25.1049         24.5204    
  26      27.8009         27.7966         27.7880         27.7750         27.7577         27.7359         27.7095         27.6786         27.6429         27.6023    
          27.5566         27.5057         27.4494         27.3873         27.3192         27.2447         27.1634         27.0748         26.9783         26.8731    
          26.7584         26.6329         26.4949         26.3422         26.1714         25.9770         25.7499         25.4724         25.1049         24.5204    
  27      27.8009         27.7966         27.7880         27.7750         27.7577         27.7359         27.7095         27.6786         27.6429         27.6023    
          27.5566         27.5057         27.4494         27.3873         27.3192         27.2447         27.1634         27.0748         26.9783         26.8731    
          26.7584         26.6329         26.4949         26.3422         26.1714         25.9770         25.7499         25.4724         25.1049         24.5204    
  28      27.8009         27.7966         27.7880         27.7750         27.7577         27.7359         27.7095         27.6786         27.6429         27.6023    
          27.5566         27.5057         27.4494         27.3873         27.3192         27.2447         27.1634         27.0748         26.9783         26.8731    
          26.7584         26.6329         26.4949         26.3422         26.1714         25.9770         25.7499         25.4724         25.1049         24.5204    
  29      27.8009         27.7966         27.7880         27.7750         27.7577         27.7359         27.7095         27.6786         27.6429         27.6023    
          27.5566         27.5057         27.4494         27.3873         27.3192         27.2447         27.1634         27.0748         26.9783         26.8731    
          26.7584         26.6329         26.4949         26.3422         26.1714         25.9770         25.7499         25.4724         25.1049         24.5204    
  30      27.8009         27.7966         27.7880         27.7750         27.7577         27.7359         27.7095         27.6786         27.6429         27.6023    
          27.5566         27.5057         27.4494         27.3873         27.3192         27.2447         27.1634         27.0748         26.9783         26.8731    
          26.7584         26.6329         26.4949         26.3422         26.1714         25.9770         25.7499         25.4724         25.1049         24.5204    

 HEAD WILL BE SAVED ON UNIT 1019 AT END OF TIME STEP    1, STRESS PERIOD   36



         TIME SUMMARY AT END OF TIME STEP    1 IN STRESS PERIOD   36
                    SECONDS     MINUTES      HOURS       DAYS        YEARS
                    -----------------------------------------------------------
   TIME STEP LENGTH 2.59200E+05  4320.0      72.000      3.0000     8.21355E-03
 STRESS PERIOD TIME 2.59200E+05  4320.0      72.000      3.0000     8.21355E-03
         TOTAL TIME 8.84736E+07 1.47456E+06  24576.      1024.0      2.8036    
 UBDSV1 SAVING           STO-SS ON UNIT   1018 AT TIME STEP      2, STRESS PERIOD     36
 UBDSV1 SAVING           STO-SY ON UNIT   1018 AT TIME STEP      2, STRESS PERIOD     36
 UBDSV1 SAVING     FLOW-JA-FACE ON UNIT   1018 AT TIME STEP      2, STRESS PERIOD     36
 UBDSV06 SAVING              RCH IN MODEL TEST_TRANS       PACKAGE TEST_TRANS      CONNECTED TO MODEL TEST_TRANS       PACKAGE RCHA             ON UNIT   1018 AT TIME STEP      2, STRESS PERIOD     36
 UBDSV06 SAVING              CHD IN MODEL TEST_TRANS       PACKAGE TEST_TRANS      CONNECTED TO MODEL TEST_TRANS       PACKAGE CHD              ON UNIT   1018 AT TIME STEP      2, STRESS PERIOD     36

 HEAD WILL BE SAVED ON UNIT 1019 AT END OF TIME STEP    2, STRESS PERIOD   36
 UBDSV1 SAVING           STO-SS ON UNIT   1018 AT TIME STEP      3, STRESS PERIOD     36
 UBDSV1 SAVING           STO-SY ON UNIT   1018 AT TIME STEP      3, STRESS PERIOD     36
 UBDSV1 SAVING     FLOW-JA-FACE ON UNIT   1018 AT TIME STEP      3, STRESS PERIOD     36
 UBDSV06 SAVING              RCH IN MODEL TEST_TRANS       PACKAGE TEST_TRANS      CONNECTED TO MODEL TEST_TRANS       PACKAGE RCHA             ON UNIT   1018 AT TIME STEP      3, STRESS PERIOD     36
 UBDSV06 SAVING              CHD IN MODEL TEST_TRANS       PACKAGE TEST_TRANS      CONNECTED TO MODEL TEST_TRANS       PACKAGE CHD              ON UNIT   1018 AT TIME STEP      3, STRESS PERIOD     36

 HEAD WILL BE SAVED ON UNIT 1019 AT END OF TIME STEP    3, STRESS PERIOD   36
 UBDSV1 SAVING           STO-SS ON UNIT   1018 AT TIME STEP      4, STRESS PERIOD     36
 UBDSV1 SAVING           STO-SY ON UNIT   1018 AT TIME STEP      4, STRESS PERIOD     36
 UBDSV1 SAVING     FLOW-JA-FACE ON UNIT   1018 AT TIME STEP      4, STRESS PERIOD     36
 UBDSV06 SAVING              RCH IN MODEL TEST_TRANS       PACKAGE TEST_TRANS      CONNECTED TO MODEL TEST_TRANS       PACKAGE RCHA             ON UNIT   1018 AT TIME STEP      4, STRESS PERIOD     36
 UBDSV06 SAVING              CHD IN MODEL TEST_TRANS       PACKAGE TEST_TRANS      CONNECTED TO MODEL TEST_TRANS       PACKAGE CHD              ON UNIT   1018 AT TIME STEP      4, STRESS PERIOD     36

 HEAD WILL BE SAVED ON UNIT 1019 AT END OF TIME STEP    4, STRESS PERIOD   36
 UBDSV1 SAVING           STO-SS ON UNIT   1018 AT TIME STEP      5, STRESS PERIOD     36
 UBDSV1 SAVING           STO-SY ON UNIT   1018 AT TIME STEP      5, STRESS PERIOD     36
 UBDSV1 SAVING     FLOW-JA-FACE ON UNIT   1018 AT TIME STEP      5, STRESS PERIOD     36
 UBDSV06 SAVING              RCH IN MODEL TEST_TRANS       PACKAGE TEST_TRANS      CONNECTED TO MODEL TEST_TRANS       PACKAGE RCHA             ON UNIT   1018 AT TIME STEP      5, STRESS PERIOD     36
 UBDSV06 SAVING              CHD IN MODEL TEST_TRANS       PACKAGE TEST_TRANS      CONNECTED TO MODEL TEST_TRANS       PACKAGE CHD              ON UNIT   1018 AT TIME STEP      5, STRESS PERIOD     36

 HEAD WILL BE SAVED ON UNIT 1019 AT END OF TIME STEP    5, STRESS PERIOD   36
 UBDSV1 SAVING           STO-SS ON UNIT   1018 AT TIME STEP      6, STRESS PERIOD     36
 UBDSV1 SAVING           STO-SY ON UNIT   1018 AT TIME STEP      6, STRESS PERIOD     36
 UBDSV1 SAVING     FLOW-JA-FACE ON UNIT   1018 AT TIME STEP      6, STRESS PERIOD     36
 UBDSV06 SAVING              RCH IN MODEL TEST_TRANS       PACKAGE TEST_TRANS      CONNECTED TO MODEL TEST_TRANS       PACKAGE RCHA             ON UNIT   1018 AT TIME STEP      6, STRESS PERIOD     36
 UBDSV06 SAVING              CHD IN MODEL TEST_TRANS       PACKAGE TEST_TRANS      CONNECTED TO MODEL TEST_TRANS       PACKAGE CHD              ON UNIT   1018 AT TIME STEP      6, STRESS PERIOD     36

 HEAD WILL BE SAVED ON UNIT 1019 AT END OF TIME STEP    6, STRESS PERIOD   36
 UBDSV1 SAVING           STO-SS ON UNIT   1018 AT TIME STEP      7, STRESS PERIOD     36
 UBDSV1 SAVING           STO-SY ON UNIT   1018 AT TIME STEP      7, STRESS PERIOD     36
 UBDSV1 SAVING     FLOW-JA-FACE ON UNIT   1018 AT TIME STEP      7, STRESS PERIOD     36
 UBDSV06 SAVING              RCH IN MODEL TEST_TRANS       PACKAGE TEST_TRANS      CONNECTED TO MODEL TEST_TRANS       PACKAGE RCHA             ON UNIT   1018 AT TIME STEP      7, STRESS PERIOD     36
 UBDSV06 SAVING              CHD IN MODEL TEST_TRANS       PACKAGE TEST_TRANS      CONNECTED TO MODEL TEST_TRANS       PACKAGE CHD              ON UNIT   1018 AT TIME STEP      7, STRESS PERIOD     36

 HEAD WILL BE SAVED ON UNIT 1019 AT END OF TIME STEP    7, STRESS PERIOD   36
 UBDSV1 SAVING           STO-SS ON UNIT   1018 AT TIME STEP      8, STRESS PERIOD     36
 UBDSV1 SAVING           STO-SY ON UNIT   1018 AT TIME STEP      8, STRESS PERIOD     36
 UBDSV1 SAVING     FLOW-JA-FACE ON UNIT   1018 AT TIME STEP      8, STRESS PERIOD     36
 UBDSV06 SAVING              RCH IN MODEL TEST_TRANS       PACKAGE TEST_TRANS      CONNECTED TO MODEL TEST_TRANS       PACKAGE RCHA             ON UNIT   1018 AT TIME STEP      8, STRESS PERIOD     36
 UBDSV06 SAVING              CHD IN MODEL TEST_TRANS       PACKAGE TEST_TRANS      CONNECTED TO MODEL TEST_TRANS       PACKAGE CHD              ON UNIT   1018 AT TIME STEP      8, STRESS PERIOD     36

 HEAD WILL BE SAVED ON UNIT 1019 AT END OF TIME STEP    8, STRESS PERIOD   36
 UBDSV1 SAVING           STO-SS ON UNIT   1018 AT TIME STEP      9, STRESS PERIOD     36
 UBDSV1 SAVING           STO-SY ON UNIT   1018 AT TIME STEP      9, STRESS PERIOD     36
 UBDSV1 SAVING     FLOW-JA-FACE ON UNIT   1018 AT TIME STEP      9, STRESS PERIOD     36
 UBDSV06 SAVING              RCH IN MODEL TEST_TRANS       PACKAGE TEST_TRANS      CONNECTED TO MODEL TEST_TRANS       PACKAGE RCHA             ON UNIT   1018 AT TIME STEP      9, STRESS PERIOD     36
 UBDSV06 SAVING              CHD IN MODEL TEST_TRANS       PACKAGE TEST_TRANS      CONNECTED TO MODEL TEST_TRANS       PACKAGE CHD              ON UNIT   1018 AT TIME STEP      9, STRESS PERIOD     36

 HEAD WILL BE SAVED ON UNIT 1019 AT END OF TIME STEP    9, STRESS PERIOD   36
 UBDSV1 SAVING           STO-SS ON UNIT   1018 AT TIME STEP     10, STRESS PERIOD     36
 UBDSV1 SAVING           STO-SY ON UNIT   1018 AT TIME STEP     10, STRESS PERIOD     36
 UBDSV1 SAVING     FLOW-JA-FACE ON UNIT   1018 AT TIME STEP     10, STRESS PERIOD     36
 UBDSV06 SAVING              RCH IN MODEL TEST_TRANS       PACKAGE TEST_TRANS      CONNECTED TO MODEL TEST_TRANS       PACKAGE RCHA             ON UNIT   1018 AT TIME STEP     10, STRESS PERIOD     36
 UBDSV06 SAVING              CHD IN MODEL TEST_TRANS       PACKAGE TEST_TRANS      CONNECTED TO MODEL TEST_TRANS       PACKAGE CHD              ON UNIT   1018 AT TIME STEP     10, STRESS PERIOD     36
1
  HEAD IN LAYER   1 AT END OF TIME STEP  10 IN STRESS PERIOD   36
  ---------------------------------------------------------------------------

                1               2               3               4               5               6               7               8               9              10
               11              12              13              14              15              16              17              18              19              20
               21              22              23              24              25              26              27              28              29              30
 ................................................................................................................................................................
   1      27.9186         27.9140         27.9048         27.8910         27.8725         27.8492         27.8209         27.7877         27.7493         27.7055    
          27.6562         27.6010         27.5396         27.4718         27.3970         27.3148         27.2246         27.1257         27.0174         26.8987    
          26.7683         26.6249         26.4667         26.2913         26.0956         25.8753         25.6239         25.3313         24.9785         24.5204    
   2      27.9186         27.9140         27.9048         27.8910         27.8725         27.8492         27.8209         27.7877         27.7493         27.7055    
          27.6562         27.6010         27.5396         27.4718         27.3970         27.3148         27.2246         27.1257         27.0174         26.8987    
          26.7683         26.6249         26.4667         26.2913         26.0956         25.8753         25.6239         25.3313         24.9785         24.5204    
   3      27.9186         27.9140         27.9048         27.8910         27.8725         27.8492         27.8209         27.7877         27.7493         27.7055    
          27.6562         27.6010         27.5396         27.4718         27.3970         27.3148         27.2246         27.1257         27.0174         26.8987    
          26.7683         26.6249         26.4667         26.2913         26.0956         25.8753         25.6239         25.3313         24.9785         24.5204    
   4      27.9186         27.9140         27.9048         27.8910         27.8725         27.8492         27.8209         27.7877         27.7493         27.7055    
          27.6562         27.6010         27.5396         27.4718         27.3970         27.3148         27.2246         27.1257         27.0174         26.8987    
          26.7683         26.6249         26.4667         26.2913         26.0956         25.8753         25.6239         25.3313         24.9785         24.5204    
   5      27.9186         27.9140         27.9048         27.8910         27.8725         27.8492         27.8209         27.7877         27.7493         27.7055    
          27.6562         27.6010         27.5396         27.4718         27.3970         27.3148         27.2246         27.1257         27.0174         26.8987    
          26.7683         26.6249         26.4667         26.2913         26.0956         25.8753         25.6239         25.3313         24.9785         24.5204    
   6      27.9186         27.9140         27.9048         27.8910         27.8725         27.8492         27.8209         27.7877         27.7493         27.7055    
          27.6562         27.6010         27.5396         27.4718         27.3970         27.3148         27.2246         27.1257         27.0174         26.8987    
          26.7683         26.6249         26.4667         26.2913         26.0956         25.8753         25.6239         25.3313         24.9785         24.5204    
   7      27.9186         27.9140         27.9048         27.8910         27.8725         27.8492         27.8209         27.7877         27.7493         27.7055    
          27.6562         27.6010         27.5396         27.4718         27.3970         27.3148         27.2246         27.1257         27.0174         26.8987    
          26.7683         26.6249         26.4667         26.2913         26.0956         25.8753         25.6239         25.3313         24.9785         24.5204    
   8      27.9186         27.9140         27.9048         27.8910         27.8725         27.8492         27.8209         27.7877         27.7493         27.7055    
          27.6562         27.6010         27.5396         27.4718         27.3970         27.3148         27.2246         27.1257         27.0174         26.8987    
          26.7683         26.6249         26.4667         26.2913         26.0956         25.8753         25.6239         25.3313         24.9785         24.5204    
   9      27.9186         27.9140         27.9048         27.8910         27.8725         27.8492         27.8209         27.7877         27.7493         27.7055    
          27.6562         27.6010         27.5396         27.4718         27.3970         27.3148         27.2246         27.1257         27.0174         26.8987    
          26.7683         26.6249         26.4667         26.2913         26.0956         25.8753         25.6239         25.3313         24.9785         24.5204    
  10      27.9186         27.9140         27.9048         27.8910         27.8725         27.8492         27.8209         27.7877         27.7493         27.7055    
          27.6562         27.6010         27.5396         27.4718         27.3970         27.3148         27.2246         27.1257         27.0174         26.8987    
          26.7683         26.6249         26.4667         26.2913         26.0956         25.8753         25.6239         25.3313         24.9785         24.5204    
  11      27.9186         27.9140         27.9048         27.8910         27.8725         27.8492         27.8209         27.7877         27.7493         27.7055    
          27.6562         27.6010         27.5396         27.4718         27.3970         27.3148         27.2246         27.1257         27.0174         26.8987    
          26.7683         26.6249         26.4667         26.2913         26.0956         25.8753         25.6239         25.3313         24.9785         24.5204    
  12      27.9186         27.9140         27.9048         27.8910         27.8725         27.8492         27.8209         27.7877         27.7493         27.7055    
          27.6562         27.6010         27.5396         27.4718         27.3970         27.3148         27.2246         27.1257         27.0174         26.8987    
          26.7683         26.6249         26.4667         26.2913         26.0956         25.8753         25.6239         25.3313         24.9785         24.5204    
  13      27.9186         27.9140         27.9048         27.8910         27.8725         27.8492         27.8209         27.7877         27.7493         27.7055    
          27.6562         27.6010         27.5396         27.4718         27.3970         27.3148         27.2246         27.1257         27.0174         26.8987    
          26.7683         26.6249         26.4667         26.2913         26.0956         25.8753         25.6239         25.3313         24.9785         24.5204    
  14      27.9186         27.9140         27.9048         27.8910         27.8725         27.8492         27.8209         27.7877         27.7493         27.7055    
          27.6562         27.6010         27.5396         27.4718         27.3970         27.3148         27.2246         27.1257         27.0174         26.8987    
          26.7683         26.6249         26.4667         26.2913         26.0956         25.8753         25.6239         25.3313         24.9785         24.5204    
  15      27.9186         27.9140         27.9048         27.8910         27.8725         27.8492         27.8209         27.7877         27.7493         27.7055    
          27.6562         27.6010         27.5396         27.4718         27.3970         27.3148         27.2246         27.1257         27.0174         26.8987    
          26.7683         26.6249         26.4667         26.2913         26.0956         25.8753         25.6239         25.3313         24.9785         24.5204    
  16      27.9186         27.9140         27.9048         27.8910         27.8725         27.8492         27.8209         27.7877         27.7493         27.7055    
          27.6562         27.6010         27.5396         27.4718         27.3970         27.3148         27.2246         27.1257         27.0174         26.8987    
          26.7683         26.6249         26.4667         26.2913         26.0956         25.8753         25.6239         25.3313         24.9785         24.5204    
  17      27.9186         27.9140         27.9048         27.8910         27.8725         27.8492         27.8209         27.7877         27.7493         27.7055    
          27.6562         27.6010         27.5396         27.4718         27.3970         27.3148         27.2246         27.1257         27.0174         26.8987    
          26.7683         26.6249         26.4667         26.2913         26.0956         25.8753         25.6239         25.3313         24.9785         24.5204    
  18      27.9186         27.9140         27.9048         27.8910         27.8725         27.8492         27.8209         27.7877         27.7493         27.7055    
          27.6562         27.6010         27.5396         27.4718         27.3970         27.3148         27.2246         27.1257         27.0174         26.8987    
          26.7683         26.6249         26.4667         26.2913         26.0956         25.8753         25.6239         25.3313         24.9785         24.5204    
  19      27.9186         27.9140         27.9048         27.8910         27.8725         27.8492         27.8209         27.7877         27.7493         27.7055    
          27.6562         27.6010         27.5396         27.4718         27.3970         27.3148         27.2246         27.1257         27.0174         26.8987    
          26.7683         26.6249         26.4667         26.2913         26.0956         25.8753         25.6239         25.3313         24.9785         24.5204    
  20      27.9186         27.9140         27.9048         27.8910         27.8725         27.8492         27.8209         27.7877         27.7493         27.7055    
          27.6562         27.6010         27.5396         27.4718         27.3970         27.3148         27.2246         27.1257         27.0174         26.8987    
          26.7683         26.6249         26.4667         26.2913         26.0956         25.8753         25.6239         25.3313         24.9785         24.5204    
  21      27.9186         27.9140         27.9048         27.8910         27.8725         27.8492         27.8209         27.7877         27.7493         27.7055    
          27.6562         27.6010         27.5396         27.4718         27.3970         27.3148         27.2246         27.1257         27.0174         26.8987    
          26.7683         26.6249         26.4667         26.2913         26.0956         25.8753         25.6239         25.3313         24.9785         24.5204    
  22      27.9186         27.9140         27.9048         27.8910         27.8725         27.8492         27.8209         27.7877         27.7493         27.7055    
          27.6562         27.6010         27.5396         27.4718         27.3970         27.3148         27.2246         27.1257         27.0174         26.8987    
          26.7683         26.6249         26.4667         26.2913         26.0956         25.8753         25.6239         25.3313         24.9785         24.5204    
  23      27.9186         27.9140         27.9048         27.8910         27.8725         27.8492         27.8209         27.7877         27.7493         27.7055    
          27.6562         27.6010         27.5396         27.4718         27.3970         27.3148         27.2246         27.1257         27.0174         26.8987    
          26.7683         26.6249         26.4667         26.2913         26.0956         25.8753         25.6239         25.3313         24.9785         24.5204    
  24      27.9186         27.9140         27.9048         27.8910         27.8725         27.8492         27.8209         27.7877         27.7493         27.7055    
          27.6562         27.6010         27.5396         27.4718         27.3970         27.3148         27.2246         27.1257         27.0174         26.8987    
          26.7683         26.6249         26.4667         26.2913         26.0956         25.8753         25.6239         25.3313         24.9785         24.5204    
  25      27.9186         27.9140         27.9048         27.8910         27.8725         27.8492         27.8209         27.7877         27.7493         27.7055    
          27.6562         27.6010         27.5396         27.4718         27.3970         27.3148         27.2246         27.1257         27.0174         26.8987    
          26.7683         26.6249         26.4667         26.2913         26.0956         25.8753         25.6239         25.3313         24.9785         24.5204    
  26      27.9186         27.9140         27.9048         27.8910         27.8725         27.8492         27.8209         27.7877         27.7493         27.7055    
          27.6562         27.6010         27.5396         27.4718         27.3970         27.3148         27.2246         27.1257         27.0174         26.8987    
          26.7683         26.6249         26.4667         26.2913         26.0956         25.8753         25.6239         25.3313         24.9785         24.5204    
  27      27.9186         27.9140         27.9048         27.8910         27.8725         27.8492         27.8209         27.7877         27.7493         27.7055    
          27.6562         27.6010         27.5396         27.4718         27.3970         27.3148         27.2246         27.1257         27.0174         26.8987    
          26.7683         26.6249         26.4667         26.2913         26.0956         25.8753         25.6239         25.3313         24.9785         24.5204    
  28      27.9186         27.9140         27.9048         27.8910         27.8725         27.8492         27.8209         27.7877         27.7493         27.7055    
          27.6562         27.6010         27.5396         27.4718         27.3970         27.3148         27.2246         27.1257         27.0174         26.8987    
          26.7683         26.6249         26.4667         26.2913         26.0956         25.8753         25.6239         25.3313         24.9785         24.5204    
  29      27.9186         27.9140         27.9048         27.8910         27.8725         27.8492         27.8209         27.7877         27.7493         27.7055    
          27.6562         27.6010         27.5396         27.4718         27.3970         27.3148         27.2246         27.1257         27.0174         26.8987    
          26.7683         26.6249         26.4667         26.2913         26.0956         25.8753         25.6239         25.3313         24.9785         24.5204    
  30      27.9186         27.9140         27.9048         27.8910         27.8725         27.8492         27.8209         27.7877         27.7493         27.7055    
          27.6562         27.6010         27.5396         27.4718         27.3970         27.3148         27.2246         27.1257         27.0174         26.8987    
          26.7683         26.6249         26.4667         26.2913         26.0956         25.8753         25.6239         25.3313         24.9785         24.5204    

 HEAD WILL BE SAVED ON UNIT 1019 AT END OF TIME STEP   10, STRESS PERIOD   36


  VOLUME BUDGET FOR ENTIRE MODEL AT END OF TIME STEP   10, STRESS PERIOD  36
  ---------------------------------------------------------------------------------------------------

     CUMULATIVE VOLUME      L**3       RATES FOR THIS TIME STEP      L**3/T          PACKAGE NAME    
     ------------------                 ------------------------                     ----------------

           IN:                                      IN:
           ---                                      ---
              STO-SS =          56.1260                STO-SS =       1.8682E-03     STORAGE         
              STO-SY =       36208.8915                STO-SY =           1.3213     STORAGE         
                 RCH =      172212.4024                   RCH =         238.3565     RCHA            
                 CHD =        2029.0190                   CHD =           0.0000     CHD             

            TOTAL IN =      210506.4389              TOTAL IN =         239.6797

          OUT:                                     OUT:
          ----                                     ----
              STO-SS =          48.9035                STO-SS =       5.7318E-02     STORAGE         
              STO-SY =       31810.3462                STO-SY =          35.4565     STORAGE         
                 RCH =           0.0000                   RCH =           0.0000     RCHA            
                 CHD =      178646.7142                   CHD =         204.1664     CHD             

           TOTAL OUT =      210505.9638             TOTAL OUT =         239.6802

            IN - OUT =           0.4750              IN - OUT =      -5.2586E-04

 PERCENT DISCREPANCY =           0.00     PERCENT DISCREPANCY =          -0.00




         TIME SUMMARY AT END OF TIME STEP   10 IN STRESS PERIOD   36
                    SECONDS     MINUTES      HOURS       DAYS        YEARS
                    -----------------------------------------------------------
   TIME STEP LENGTH 2.59200E+05  4320.0      72.000      3.0000     8.21355E-03
 STRESS PERIOD TIME 2.59200E+06  43200.      720.00      30.000     8.21355E-02
         TOTAL TIME 9.08064E+07 1.51344E+06  25224.      1051.0      2.8775    
