                                   MODFLOW 6
                U.S. GEOLOGICAL SURVEY MODULAR HYDROLOGIC MODEL
                          GROUNDWATER FLOW MODEL (GWF)
                            VERSION 6.0.4 03/13/2019

   MODFLOW 6 compiled Mar 21 2019 15:37:31 with IFORT compiler (ver. 19.0.0)

This software has been approved for release by the U.S. Geological 
Survey (USGS). Although the software has been subjected to rigorous 
review, the USGS reserves the right to update the software as needed 
pursuant to further analysis and review. No warranty, expressed or 
implied, is made by the USGS or the U.S. Government as to the 
functionality of the software and related material nor shall the 
fact of release constitute any such warranty. Furthermore, the 
software is released on condition that neither the USGS nor the U.S. 
Government shall be held liable for any damages resulting from its 
authorized or unauthorized use. Also refer to the USGS Water 
Resources Software User Rights Notice for complete use, copyright, 
and distribution information.


MODFLOW was compiled using uniform precision.
Precision of REAL variables: 15


 OPENED 2D_trans.dis
 FILE TYPE:DIS6                   UNIT 1005   STATUS:OLD                 
 FORMAT:FORMATTED              ACCESS:SEQUENTIAL          
 ACTION:READ                


 OPENED 2D_trans.ic
 FILE TYPE:IC6                    UNIT 1006   STATUS:OLD                 
 FORMAT:FORMATTED              ACCESS:SEQUENTIAL          
 ACTION:READ                


 OPENED 2D_trans.oc
 FILE TYPE:OC6                    UNIT 1007   STATUS:OLD                 
 FORMAT:FORMATTED              ACCESS:SEQUENTIAL          
 ACTION:READ                


 OPENED 2D_trans.npf
 FILE TYPE:NPF6                   UNIT 1008   STATUS:OLD                 
 FORMAT:FORMATTED              ACCESS:SEQUENTIAL          
 ACTION:READ                


 OPENED 2D_trans.sto
 FILE TYPE:STO6                   UNIT 1009   STATUS:OLD                 
 FORMAT:FORMATTED              ACCESS:SEQUENTIAL          
 ACTION:READ                


 OPENED wel.wel
 FILE TYPE:WEL6                   UNIT 1010   STATUS:OLD                 
 FORMAT:FORMATTED              ACCESS:SEQUENTIAL          
 ACTION:READ                


 OPENED 2D_trans.rcha
 FILE TYPE:RCH6                   UNIT 1011   STATUS:OLD                 
 FORMAT:FORMATTED              ACCESS:SEQUENTIAL          
 ACTION:READ                


 OPENED sea.chd
 FILE TYPE:CHD6                   UNIT 1012   STATUS:OLD                 
 FORMAT:FORMATTED              ACCESS:SEQUENTIAL          
 ACTION:READ                


 OPENED eta.chd
 FILE TYPE:CHD6                   UNIT 1013   STATUS:OLD                 
 FORMAT:FORMATTED              ACCESS:SEQUENTIAL          
 ACTION:READ                


 OPENED agy.chd
 FILE TYPE:CHD6                   UNIT 1014   STATUS:OLD                 
 FORMAT:FORMATTED              ACCESS:SEQUENTIAL          
 ACTION:READ                


 OPENED Tet.chd
 FILE TYPE:CHD6                   UNIT 1015   STATUS:OLD                 
 FORMAT:FORMATTED              ACCESS:SEQUENTIAL          
 ACTION:READ                


 OPENED Rea.chd
 FILE TYPE:CHD6                   UNIT 1016   STATUS:OLD                 
 FORMAT:FORMATTED              ACCESS:SEQUENTIAL          
 ACTION:READ                


 OPENED Cant.chd
 FILE TYPE:CHD6                   UNIT 1017   STATUS:OLD                 
 FORMAT:FORMATTED              ACCESS:SEQUENTIAL          
 ACTION:READ                


 OPENED Tech.chd
 FILE TYPE:CHD6                   UNIT 1018   STATUS:OLD                 
 FORMAT:FORMATTED              ACCESS:SEQUENTIAL          
 ACTION:READ                


 OPENED Bol.chd
 FILE TYPE:CHD6                   UNIT 1019   STATUS:OLD                 
 FORMAT:FORMATTED              ACCESS:SEQUENTIAL          
 ACTION:READ                


 OPENED 2D_trans.obs
 FILE TYPE:OBS6                   UNIT 1020   STATUS:OLD                 
 FORMAT:FORMATTED              ACCESS:SEQUENTIAL          
 ACTION:READ                


 DIS -- STRUCTURED GRID DISCRETIZATION PACKAGE, VERSION 2 : 3/27/2014 - INPUT READ FROM UNIT 1005


 PROCESSING DISCRETIZATION OPTIONS
    XORIGIN SPECIFIED AS     660022.500000000    
    YORIGIN SPECIFIED AS     6149977.50000000    
 END OF DISCRETIZATION OPTIONS
 MODEL LENGTH UNIT IS UNDEFINED
 PROCESSING DISCRETIZATION DIMENSIONS
    NLAY =       1
    NROW =     183
    NCOL =     153
 END OF DISCRETIZATION DIMENSIONS
 PROCESSING GRIDDATA
 END PROCESSING GRIDDATA

 THE SPECIFIED IDOMAIN RESULTS IN A REDUCED NUMBER OF CELLS.
 NUMBER OF USER NODES:   27999
 NUMBER OF NODES IN SOLUTION:   10338



 NPF -- NODE PROPERTY FLOW PACKAGE, VERSION 1, 3/30/2015 INPUT READ FROM UNIT 1008


 PROCESSING NPF OPTIONS
    CELL-BY-CELL FLOW INFORMATION WILL BE SAVED TO BINARY FILE WHENEVER ICBCFL IS NOT ZERO.
 END OF NPF OPTIONS

 WEL   -- WEL PACKAGE, VERSION 8, 2/22/2014 INPUT READ FROM UNIT 1010

 PROCESSING WEL OPTIONS
 END OF WEL OPTIONS

 PROCESSING WEL DIMENSIONS
    MAXBOUND =     406
 END OF WEL DIMENSIONS

 RCH   -- RCH PACKAGE, VERSION 8, 2/22/2014 INPUT READ FROM UNIT 1011

 PROCESSING RCH OPTIONS
    RECHARGE INPUT WILL BE READ AS ARRAY(S).
 END OF RCH OPTIONS

 CHD   -- CHD PACKAGE, VERSION 8, 2/22/2014 INPUT READ FROM UNIT 1012

 PROCESSING CHD OPTIONS
    FLOWS WILL BE SAVED TO BUDGET FILE SPECIFIED IN OUTPUT CONTROL
 END OF CHD OPTIONS

 PROCESSING CHD DIMENSIONS
    MAXBOUND =     169
 END OF CHD DIMENSIONS

 CHD   -- CHD PACKAGE, VERSION 8, 2/22/2014 INPUT READ FROM UNIT 1013

 PROCESSING CHD OPTIONS
    FLOWS WILL BE SAVED TO BUDGET FILE SPECIFIED IN OUTPUT CONTROL
 END OF CHD OPTIONS

 PROCESSING CHD DIMENSIONS
    MAXBOUND =     645
 END OF CHD DIMENSIONS

 CHD   -- CHD PACKAGE, VERSION 8, 2/22/2014 INPUT READ FROM UNIT 1014

 PROCESSING CHD OPTIONS
    FLOWS WILL BE SAVED TO BUDGET FILE SPECIFIED IN OUTPUT CONTROL
 END OF CHD OPTIONS

 PROCESSING CHD DIMENSIONS
    MAXBOUND =      83
 END OF CHD DIMENSIONS

 CHD   -- CHD PACKAGE, VERSION 8, 2/22/2014 INPUT READ FROM UNIT 1015

 PROCESSING CHD OPTIONS
    FLOWS WILL BE SAVED TO BUDGET FILE SPECIFIED IN OUTPUT CONTROL
 END OF CHD OPTIONS

 PROCESSING CHD DIMENSIONS
    MAXBOUND =     176
 END OF CHD DIMENSIONS

 CHD   -- CHD PACKAGE, VERSION 8, 2/22/2014 INPUT READ FROM UNIT 1016

 PROCESSING CHD OPTIONS
    FLOWS WILL BE SAVED TO BUDGET FILE SPECIFIED IN OUTPUT CONTROL
 END OF CHD OPTIONS

 PROCESSING CHD DIMENSIONS
    MAXBOUND =     119
 END OF CHD DIMENSIONS

 CHD   -- CHD PACKAGE, VERSION 8, 2/22/2014 INPUT READ FROM UNIT 1017

 PROCESSING CHD OPTIONS
    FLOWS WILL BE SAVED TO BUDGET FILE SPECIFIED IN OUTPUT CONTROL
 END OF CHD OPTIONS

 PROCESSING CHD DIMENSIONS
    MAXBOUND =      63
 END OF CHD DIMENSIONS

 CHD   -- CHD PACKAGE, VERSION 8, 2/22/2014 INPUT READ FROM UNIT 1018

 PROCESSING CHD OPTIONS
    FLOWS WILL BE SAVED TO BUDGET FILE SPECIFIED IN OUTPUT CONTROL
 END OF CHD OPTIONS

 PROCESSING CHD DIMENSIONS
    MAXBOUND =     113
 END OF CHD DIMENSIONS

 CHD   -- CHD PACKAGE, VERSION 8, 2/22/2014 INPUT READ FROM UNIT 1019

 PROCESSING CHD OPTIONS
    FLOWS WILL BE SAVED TO BUDGET FILE SPECIFIED IN OUTPUT CONTROL
 END OF CHD OPTIONS

 PROCESSING CHD DIMENSIONS
    MAXBOUND =      48
 END OF CHD DIMENSIONS

 IC -- INITIAL CONDITIONS PACKAGE, VERSION 8, 3/28/2015 INPUT READ FROM UNIT 1006
 PROCESSING GRIDDATA
 END PROCESSING GRIDDATA
 PROCESSING GRIDDATA

                ICELLTYPE = 0
 K33 not provided.  Assuming K33 = K.
 K22 not provided.  Assuming K22 = K.
 END PROCESSING GRIDDATA

 STO -- STORAGE PACKAGE, VERSION 1, 5/19/2014 INPUT READ FROM UNIT 1009


 PROCESSING STORAGE OPTIONS
 END OF STORAGE OPTIONS
 PROCESSING GRIDDATA

                 ICONVERT = 1

         SPECIFIC STORAGE =  0.1000000E-04

           SPECIFIC YIELD =  0.1000000E-01
 END PROCESSING GRIDDATA

The observation utility is active for "2D_TRANS"

Processing observation options:

Text output number of digits of precision set to: 10
The PRINT_INPUT option has been specified.


Observations read from file "2D_trans.obs":
Name                                      Type                             Time         Location data
----------------------------------------  -------------------------------  -----------  --------------------------
ROW: 75/COL: 75                           Continuous HEAD                  All times    "1 76 76"
ROW: 90/COL: 80                           Continuous HEAD                  All times    "1 91 81"
ROW: 110/COL: 90                          Continuous HEAD                  All times    "1 111 91"
    BINARY GRID INFORMATION WILL BE WRITTEN TO:
      UNIT NUMBER: 1023
      FILE NAME: C:\Users\emmal\Documents\GitHub\TM_Ludovic_Schorpp\codes_tests\Modeles2D\trans\workspace\2D_trans.dis.grb

 OPENED C:\Users\emmal\Documents\GitHub\TM_Ludovic_Schorpp\codes_tests\Modeles2D\trans\workspace\2D_trans.dis.grb
 FILE TYPE:DATA(BINARY)   UNIT 1023   STATUS:REPLACE             
 FORMAT:UNFORMATTED            ACCESS:STREAM              
 ACTION:READWRITE           

      THE LAST TIME STEP WILL BE PRINTED
      THE LAST TIME STEP WILL BE PRINTED
 PROCESSING OC OPTIONS
    BUDGET INFORMATION WILL BE WRITTEN TO:
      UNIT NUMBER: 1024
      FILE NAME: 2D_trans.cbc

 OPENED 2D_trans.cbc
 FILE TYPE:DATA(BINARY)   UNIT 1024   STATUS:REPLACE             
 FORMAT:UNFORMATTED            ACCESS:STREAM              
 ACTION:READWRITE           

    HEAD INFORMATION WILL BE WRITTEN TO:
      UNIT NUMBER: 1025
      FILE NAME: 2D_trans.hds

 OPENED 2D_trans.hds
 FILE TYPE:DATA(BINARY)   UNIT 1025   STATUS:REPLACE             
 FORMAT:UNFORMATTED            ACCESS:STREAM              
 ACTION:READWRITE           

 END OF OC OPTIONS

 BEGIN READING OUTPUT CONTROL FOR STRESS PERIOD 1
      THE LAST TIME STEP WILL BE SAVED
      THE LAST TIME STEP WILL BE SAVED
      THE LAST TIME STEP WILL BE PRINTED

 END READING OUTPUT CONTROL FOR STRESS PERIOD 1


 UPDATING STORAGE VALUES
 END UPDATING STORAGE VALUES


 STRESS PERIOD 1 IS STEADY-STATE

 UBDSV1 SAVING     FLOW-JA-FACE ON UNIT   1024 AT TIME STEP      1, STRESS PERIOD      1
 UBDSV06 SAVING       DATA-SPDIS IN MODEL 2D_TRANS         PACKAGE NPF             CONNECTED TO MODEL 2D_TRANS         PACKAGE NPF              ON UNIT   1024 AT TIME STEP      1, STRESS PERIOD      1
 UBDSV06 SAVING              CHD IN MODEL 2D_TRANS         PACKAGE 2D_TRANS        CONNECTED TO MODEL 2D_TRANS         PACKAGE SEA              ON UNIT   1024 AT TIME STEP      1, STRESS PERIOD      1
 UBDSV06 SAVING              CHD IN MODEL 2D_TRANS         PACKAGE 2D_TRANS        CONNECTED TO MODEL 2D_TRANS         PACKAGE ETA              ON UNIT   1024 AT TIME STEP      1, STRESS PERIOD      1
 UBDSV06 SAVING              CHD IN MODEL 2D_TRANS         PACKAGE 2D_TRANS        CONNECTED TO MODEL 2D_TRANS         PACKAGE AGY              ON UNIT   1024 AT TIME STEP      1, STRESS PERIOD      1
 UBDSV06 SAVING              CHD IN MODEL 2D_TRANS         PACKAGE 2D_TRANS        CONNECTED TO MODEL 2D_TRANS         PACKAGE TET              ON UNIT   1024 AT TIME STEP      1, STRESS PERIOD      1
 UBDSV06 SAVING              CHD IN MODEL 2D_TRANS         PACKAGE 2D_TRANS        CONNECTED TO MODEL 2D_TRANS         PACKAGE REA              ON UNIT   1024 AT TIME STEP      1, STRESS PERIOD      1
 UBDSV06 SAVING              CHD IN MODEL 2D_TRANS         PACKAGE 2D_TRANS        CONNECTED TO MODEL 2D_TRANS         PACKAGE CANT             ON UNIT   1024 AT TIME STEP      1, STRESS PERIOD      1
 UBDSV06 SAVING              CHD IN MODEL 2D_TRANS         PACKAGE 2D_TRANS        CONNECTED TO MODEL 2D_TRANS         PACKAGE TECH             ON UNIT   1024 AT TIME STEP      1, STRESS PERIOD      1
 UBDSV06 SAVING              CHD IN MODEL 2D_TRANS         PACKAGE 2D_TRANS        CONNECTED TO MODEL 2D_TRANS         PACKAGE BOL              ON UNIT   1024 AT TIME STEP      1, STRESS PERIOD      1

 HEAD WILL BE SAVED ON UNIT 1025 AT END OF TIME STEP    1, STRESS PERIOD    1


  VOLUME BUDGET FOR ENTIRE MODEL AT END OF TIME STEP    1, STRESS PERIOD   1
  ---------------------------------------------------------------------------------------------------

     CUMULATIVE VOLUME      L**3       RATES FOR THIS TIME STEP      L**3/T          PACKAGE NAME    
     ------------------                 ------------------------                     ----------------

           IN:                                      IN:
           ---                                      ---
              STO-SS =           0.0000                STO-SS =           0.0000     STORAGE         
              STO-SY =           0.0000                STO-SY =           0.0000     STORAGE         
                 WEL =           0.0000                   WEL =           0.0000     WEL             
                 RCH =           2.8656                   RCH =           2.8656     RCHA            
                 CHD =       6.1895E-03                   CHD =       6.1895E-03     SEA             
                 CHD =       7.9918E-03                   CHD =       7.9918E-03     ETA             
                 CHD =       3.8709E-02                   CHD =       3.8709E-02     AGY             
                 CHD =           0.3280                   CHD =           0.3280     TET             
                 CHD =           0.3649                   CHD =           0.3649     REA             
                 CHD =           0.1712                   CHD =           0.1712     CANT            
                 CHD =           0.1709                   CHD =           0.1709     TECH            
                 CHD =           0.4614                   CHD =           0.4614     BOL             

            TOTAL IN =           4.4148              TOTAL IN =           4.4148

          OUT:                                     OUT:
          ----                                     ----
              STO-SS =           0.0000                STO-SS =           0.0000     STORAGE         
              STO-SY =           0.0000                STO-SY =           0.0000     STORAGE         
                 WEL =           1.4105                   WEL =           1.4105     WEL             
                 RCH =           0.0000                   RCH =           0.0000     RCHA            
                 CHD =           0.3879                   CHD =           0.3879     SEA             
                 CHD =           0.3429                   CHD =           0.3429     ETA             
                 CHD =           0.2979                   CHD =           0.2979     AGY             
                 CHD =           0.9221                   CHD =           0.9221     TET             
                 CHD =           0.3499                   CHD =           0.3499     REA             
                 CHD =           0.1941                   CHD =           0.1941     CANT            
                 CHD =           0.3940                   CHD =           0.3940     TECH            
                 CHD =           0.1156                   CHD =           0.1156     BOL             

           TOTAL OUT =           4.4148             TOTAL OUT =           4.4148

            IN - OUT =       6.1536E-06              IN - OUT =       6.1536E-06

 PERCENT DISCREPANCY =           0.00     PERCENT DISCREPANCY =           0.00




         TIME SUMMARY AT END OF TIME STEP    1 IN STRESS PERIOD    1
                    SECONDS     MINUTES      HOURS       DAYS        YEARS
                    -----------------------------------------------------------
   TIME STEP LENGTH  1.0000     1.66667E-02 2.77778E-04 1.15741E-05 3.16881E-08
 STRESS PERIOD TIME  1.0000     1.66667E-02 2.77778E-04 1.15741E-05 3.16881E-08
         TOTAL TIME  1.0000     1.66667E-02 2.77778E-04 1.15741E-05 3.16881E-08

 END OF FILE DETECTED IN OUTPUT CONTROL.
 CURRENT OUTPUT CONTROL SETTINGS WILL BE 
 REPEATED UNTIL THE END OF THE SIMULATION.

 OUTPUT CONTROL FOR STRESS PERIOD 2 IS REPEATED USING SETTINGS FROM A PREVIOUS STRESS PERIOD.


 UPDATING STORAGE VALUES
 END UPDATING STORAGE VALUES


 STRESS PERIOD 2 IS TRANSIENT


 REUSING CHDS FROM LAST STRESS PERIOD

 REUSING CHDS FROM LAST STRESS PERIOD

 REUSING CHDS FROM LAST STRESS PERIOD

 REUSING CHDS FROM LAST STRESS PERIOD

 REUSING CHDS FROM LAST STRESS PERIOD

 REUSING CHDS FROM LAST STRESS PERIOD

 REUSING CHDS FROM LAST STRESS PERIOD

 REUSING CHDS FROM LAST STRESS PERIOD
 UBDSV1 SAVING     FLOW-JA-FACE ON UNIT   1024 AT TIME STEP      5, STRESS PERIOD      2
 UBDSV06 SAVING       DATA-SPDIS IN MODEL 2D_TRANS         PACKAGE NPF             CONNECTED TO MODEL 2D_TRANS         PACKAGE NPF              ON UNIT   1024 AT TIME STEP      5, STRESS PERIOD      2
 UBDSV06 SAVING              CHD IN MODEL 2D_TRANS         PACKAGE 2D_TRANS        CONNECTED TO MODEL 2D_TRANS         PACKAGE SEA              ON UNIT   1024 AT TIME STEP      5, STRESS PERIOD      2
 UBDSV06 SAVING              CHD IN MODEL 2D_TRANS         PACKAGE 2D_TRANS        CONNECTED TO MODEL 2D_TRANS         PACKAGE ETA              ON UNIT   1024 AT TIME STEP      5, STRESS PERIOD      2
 UBDSV06 SAVING              CHD IN MODEL 2D_TRANS         PACKAGE 2D_TRANS        CONNECTED TO MODEL 2D_TRANS         PACKAGE AGY              ON UNIT   1024 AT TIME STEP      5, STRESS PERIOD      2
 UBDSV06 SAVING              CHD IN MODEL 2D_TRANS         PACKAGE 2D_TRANS        CONNECTED TO MODEL 2D_TRANS         PACKAGE TET              ON UNIT   1024 AT TIME STEP      5, STRESS PERIOD      2
 UBDSV06 SAVING              CHD IN MODEL 2D_TRANS         PACKAGE 2D_TRANS        CONNECTED TO MODEL 2D_TRANS         PACKAGE REA              ON UNIT   1024 AT TIME STEP      5, STRESS PERIOD      2
 UBDSV06 SAVING              CHD IN MODEL 2D_TRANS         PACKAGE 2D_TRANS        CONNECTED TO MODEL 2D_TRANS         PACKAGE CANT             ON UNIT   1024 AT TIME STEP      5, STRESS PERIOD      2
 UBDSV06 SAVING              CHD IN MODEL 2D_TRANS         PACKAGE 2D_TRANS        CONNECTED TO MODEL 2D_TRANS         PACKAGE TECH             ON UNIT   1024 AT TIME STEP      5, STRESS PERIOD      2
 UBDSV06 SAVING              CHD IN MODEL 2D_TRANS         PACKAGE 2D_TRANS        CONNECTED TO MODEL 2D_TRANS         PACKAGE BOL              ON UNIT   1024 AT TIME STEP      5, STRESS PERIOD      2

 HEAD WILL BE SAVED ON UNIT 1025 AT END OF TIME STEP    5, STRESS PERIOD    2


  VOLUME BUDGET FOR ENTIRE MODEL AT END OF TIME STEP    5, STRESS PERIOD   2
  ---------------------------------------------------------------------------------------------------

     CUMULATIVE VOLUME      L**3       RATES FOR THIS TIME STEP      L**3/T          PACKAGE NAME    
     ------------------                 ------------------------                     ----------------

           IN:                                      IN:
           ---                                      ---
              STO-SS =           0.0000                STO-SS =           0.0000     STORAGE         
              STO-SY =           0.0000                STO-SY =           0.0000     STORAGE         
                 WEL =           0.0000                   WEL =           0.0000     WEL             
                 RCH =     7783125.2201                   RCH =           3.0027     RCHA            
                 CHD =        7414.6914                   CHD =       2.7136E-03     SEA             
                 CHD =        9991.1095                   CHD =       3.7612E-03     ETA             
                 CHD =       77715.2535                   CHD =       2.6656E-02     AGY             
                 CHD =      750828.6678                   CHD =           0.2788     TET             
                 CHD =      915362.4978                   CHD =           0.3484     REA             
                 CHD =      429663.5322                   CHD =           0.1647     CANT            
                 CHD =      401687.8159                   CHD =           0.1471     TECH            
                 CHD =     1152318.4304                   CHD =           0.4374     BOL             

            TOTAL IN =    11528107.2187              TOTAL IN =           4.4124

          OUT:                                     OUT:
          ----                                     ----
              STO-SS =      219530.1794                STO-SS =       6.8336E-02     STORAGE         
              STO-SY =      999443.5547                STO-SY =           0.3157     STORAGE         
                 WEL =     2198704.9646                   WEL =           0.8483     WEL             
                 RCH =           0.0000                   RCH =           0.0000     RCHA            
                 CHD =     1048914.3026                   CHD =           0.4113     SEA             
                 CHD =      948088.1631                   CHD =           0.3740     ETA             
                 CHD =      839679.9006                   CHD =           0.3349     AGY             
                 CHD =     2489459.5557                   CHD =           0.9762     TET             
                 CHD =      927426.2397                   CHD =           0.3619     REA             
                 CHD =      511193.8756                   CHD =           0.1981     CANT            
                 CHD =     1035450.2680                   CHD =           0.4019     TECH            
                 CHD =      310231.0498                   CHD =           0.1218     BOL             

           TOTAL OUT =    11528122.0538             TOTAL OUT =           4.4123

            IN - OUT =         -14.8351              IN - OUT =       9.8954E-06

 PERCENT DISCREPANCY =          -0.00     PERCENT DISCREPANCY =           0.00




         TIME SUMMARY AT END OF TIME STEP    5 IN STRESS PERIOD    2
                    SECONDS     MINUTES      HOURS       DAYS        YEARS
                    -----------------------------------------------------------
   TIME STEP LENGTH 5.18400E+05  8640.0      144.00      6.0000     1.64271E-02
 STRESS PERIOD TIME 2.59200E+06  43200.      720.00      30.000     8.21355E-02
         TOTAL TIME 2.59200E+06  43200.      720.00      30.000     8.21356E-02

 OUTPUT CONTROL FOR STRESS PERIOD 3 IS REPEATED USING SETTINGS FROM A PREVIOUS STRESS PERIOD.


 STRESS PERIOD 3 IS TRANSIENT


 REUSING CHDS FROM LAST STRESS PERIOD

 REUSING CHDS FROM LAST STRESS PERIOD

 REUSING CHDS FROM LAST STRESS PERIOD

 REUSING CHDS FROM LAST STRESS PERIOD

 REUSING CHDS FROM LAST STRESS PERIOD

 REUSING CHDS FROM LAST STRESS PERIOD

 REUSING CHDS FROM LAST STRESS PERIOD

 REUSING CHDS FROM LAST STRESS PERIOD
 UBDSV1 SAVING     FLOW-JA-FACE ON UNIT   1024 AT TIME STEP      5, STRESS PERIOD      3
 UBDSV06 SAVING       DATA-SPDIS IN MODEL 2D_TRANS         PACKAGE NPF             CONNECTED TO MODEL 2D_TRANS         PACKAGE NPF              ON UNIT   1024 AT TIME STEP      5, STRESS PERIOD      3
 UBDSV06 SAVING              CHD IN MODEL 2D_TRANS         PACKAGE 2D_TRANS        CONNECTED TO MODEL 2D_TRANS         PACKAGE SEA              ON UNIT   1024 AT TIME STEP      5, STRESS PERIOD      3
 UBDSV06 SAVING              CHD IN MODEL 2D_TRANS         PACKAGE 2D_TRANS        CONNECTED TO MODEL 2D_TRANS         PACKAGE ETA              ON UNIT   1024 AT TIME STEP      5, STRESS PERIOD      3
 UBDSV06 SAVING              CHD IN MODEL 2D_TRANS         PACKAGE 2D_TRANS        CONNECTED TO MODEL 2D_TRANS         PACKAGE AGY              ON UNIT   1024 AT TIME STEP      5, STRESS PERIOD      3
 UBDSV06 SAVING              CHD IN MODEL 2D_TRANS         PACKAGE 2D_TRANS        CONNECTED TO MODEL 2D_TRANS         PACKAGE TET              ON UNIT   1024 AT TIME STEP      5, STRESS PERIOD      3
 UBDSV06 SAVING              CHD IN MODEL 2D_TRANS         PACKAGE 2D_TRANS        CONNECTED TO MODEL 2D_TRANS         PACKAGE REA              ON UNIT   1024 AT TIME STEP      5, STRESS PERIOD      3
 UBDSV06 SAVING              CHD IN MODEL 2D_TRANS         PACKAGE 2D_TRANS        CONNECTED TO MODEL 2D_TRANS         PACKAGE CANT             ON UNIT   1024 AT TIME STEP      5, STRESS PERIOD      3
 UBDSV06 SAVING              CHD IN MODEL 2D_TRANS         PACKAGE 2D_TRANS        CONNECTED TO MODEL 2D_TRANS         PACKAGE TECH             ON UNIT   1024 AT TIME STEP      5, STRESS PERIOD      3
 UBDSV06 SAVING              CHD IN MODEL 2D_TRANS         PACKAGE 2D_TRANS        CONNECTED TO MODEL 2D_TRANS         PACKAGE BOL              ON UNIT   1024 AT TIME STEP      5, STRESS PERIOD      3

 HEAD WILL BE SAVED ON UNIT 1025 AT END OF TIME STEP    5, STRESS PERIOD    3


  VOLUME BUDGET FOR ENTIRE MODEL AT END OF TIME STEP    5, STRESS PERIOD   3
  ---------------------------------------------------------------------------------------------------

     CUMULATIVE VOLUME      L**3       RATES FOR THIS TIME STEP      L**3/T          PACKAGE NAME    
     ------------------                 ------------------------                     ----------------

           IN:                                      IN:
           ---                                      ---
              STO-SS =       32166.8708                STO-SS =       7.4559E-03     STORAGE         
              STO-SY =      131144.2952                STO-SY =       3.7986E-02     STORAGE         
                 WEL =           0.0000                   WEL =           0.0000     WEL             
                 RCH =    14787935.3390                   RCH =           2.7025     RCHA            
                 CHD =       16388.7585                   CHD =       3.4973E-03     SEA             
                 CHD =       21424.1582                   CHD =       4.4330E-03     ETA             
                 CHD =      149440.1570                   CHD =       2.7778E-02     AGY             
                 CHD =     1486291.8078                   CHD =           0.2841     TET             
                 CHD =     1820610.5590                   CHD =           0.3489     REA             
                 CHD =      861770.9973                   CHD =           0.1671     CANT            
                 CHD =      780099.3869                   CHD =           0.1450     TECH            
                 CHD =     2290006.2280                   CHD =           0.4393     BOL             

            TOTAL IN =    22377278.5577              TOTAL IN =           4.1680

          OUT:                                     OUT:
          ----                                     ----
              STO-SS =      264132.9333                STO-SS =       1.5319E-02     STORAGE         
              STO-SY =     1208429.4463                STO-SY =       6.9868E-02     STORAGE         
                 WEL =     4650960.0063                   WEL =           0.9461     WEL             
                 RCH =           0.0000                   RCH =           0.0000     RCHA            
                 CHD =     2090291.6524                   CHD =           0.4005     SEA             
                 CHD =     1887466.0936                   CHD =           0.3607     ETA             
                 CHD =     1695357.6322                   CHD =           0.3294     AGY             
                 CHD =     5004559.9151                   CHD =           0.9702     TET             
                 CHD =     1862587.2537                   CHD =           0.3609     REA             
                 CHD =     1020653.3174                   CHD =           0.1962     CANT            
                 CHD =     2070041.2263                   CHD =           0.3985     TECH            
                 CHD =      622881.5240                   CHD =           0.1204     BOL             

           TOTAL OUT =    22377361.0005             TOTAL OUT =           4.1681

            IN - OUT =         -82.4428              IN - OUT =      -5.8755E-05

 PERCENT DISCREPANCY =          -0.00     PERCENT DISCREPANCY =          -0.00




         TIME SUMMARY AT END OF TIME STEP    5 IN STRESS PERIOD    3
                    SECONDS     MINUTES      HOURS       DAYS        YEARS
                    -----------------------------------------------------------
   TIME STEP LENGTH 5.18400E+05  8640.0      144.00      6.0000     1.64271E-02
 STRESS PERIOD TIME 2.59200E+06  43200.      720.00      30.000     8.21355E-02
         TOTAL TIME 5.18400E+06  86400.      1440.0      60.000     0.16427    

 OUTPUT CONTROL FOR STRESS PERIOD 4 IS REPEATED USING SETTINGS FROM A PREVIOUS STRESS PERIOD.


 STRESS PERIOD 4 IS TRANSIENT


 REUSING CHDS FROM LAST STRESS PERIOD

 REUSING CHDS FROM LAST STRESS PERIOD

 REUSING CHDS FROM LAST STRESS PERIOD

 REUSING CHDS FROM LAST STRESS PERIOD

 REUSING CHDS FROM LAST STRESS PERIOD

 REUSING CHDS FROM LAST STRESS PERIOD

 REUSING CHDS FROM LAST STRESS PERIOD

 REUSING CHDS FROM LAST STRESS PERIOD
 UBDSV1 SAVING     FLOW-JA-FACE ON UNIT   1024 AT TIME STEP      5, STRESS PERIOD      4
 UBDSV06 SAVING       DATA-SPDIS IN MODEL 2D_TRANS         PACKAGE NPF             CONNECTED TO MODEL 2D_TRANS         PACKAGE NPF              ON UNIT   1024 AT TIME STEP      5, STRESS PERIOD      4
 UBDSV06 SAVING              CHD IN MODEL 2D_TRANS         PACKAGE 2D_TRANS        CONNECTED TO MODEL 2D_TRANS         PACKAGE SEA              ON UNIT   1024 AT TIME STEP      5, STRESS PERIOD      4
 UBDSV06 SAVING              CHD IN MODEL 2D_TRANS         PACKAGE 2D_TRANS        CONNECTED TO MODEL 2D_TRANS         PACKAGE ETA              ON UNIT   1024 AT TIME STEP      5, STRESS PERIOD      4
 UBDSV06 SAVING              CHD IN MODEL 2D_TRANS         PACKAGE 2D_TRANS        CONNECTED TO MODEL 2D_TRANS         PACKAGE AGY              ON UNIT   1024 AT TIME STEP      5, STRESS PERIOD      4
 UBDSV06 SAVING              CHD IN MODEL 2D_TRANS         PACKAGE 2D_TRANS        CONNECTED TO MODEL 2D_TRANS         PACKAGE TET              ON UNIT   1024 AT TIME STEP      5, STRESS PERIOD      4
 UBDSV06 SAVING              CHD IN MODEL 2D_TRANS         PACKAGE 2D_TRANS        CONNECTED TO MODEL 2D_TRANS         PACKAGE REA              ON UNIT   1024 AT TIME STEP      5, STRESS PERIOD      4
 UBDSV06 SAVING              CHD IN MODEL 2D_TRANS         PACKAGE 2D_TRANS        CONNECTED TO MODEL 2D_TRANS         PACKAGE CANT             ON UNIT   1024 AT TIME STEP      5, STRESS PERIOD      4
 UBDSV06 SAVING              CHD IN MODEL 2D_TRANS         PACKAGE 2D_TRANS        CONNECTED TO MODEL 2D_TRANS         PACKAGE TECH             ON UNIT   1024 AT TIME STEP      5, STRESS PERIOD      4
 UBDSV06 SAVING              CHD IN MODEL 2D_TRANS         PACKAGE 2D_TRANS        CONNECTED TO MODEL 2D_TRANS         PACKAGE BOL              ON UNIT   1024 AT TIME STEP      5, STRESS PERIOD      4

 HEAD WILL BE SAVED ON UNIT 1025 AT END OF TIME STEP    5, STRESS PERIOD    4


  VOLUME BUDGET FOR ENTIRE MODEL AT END OF TIME STEP    5, STRESS PERIOD   4
  ---------------------------------------------------------------------------------------------------

     CUMULATIVE VOLUME      L**3       RATES FOR THIS TIME STEP      L**3/T          PACKAGE NAME    
     ------------------                 ------------------------                     ----------------

           IN:                                      IN:
           ---                                      ---
              STO-SS =       64895.3475                STO-SS =       1.0037E-02     STORAGE         
              STO-SY =      299718.2196                STO-SY =       5.7064E-02     STORAGE         
                 WEL =           0.0000                   WEL =           0.0000     WEL             
                 RCH =    21559251.7860                   RCH =           2.6124     RCHA            
                 CHD =       25642.3659                   CHD =       3.5729E-03     SEA             
                 CHD =       33020.6945                   CHD =       4.4756E-03     ETA             
                 CHD =      223582.7053                   CHD =       2.8942E-02     AGY             
                 CHD =     2227507.2665                   CHD =           0.2865     TET             
                 CHD =     2725377.4900                   CHD =           0.3489     REA             
                 CHD =     1296919.4548                   CHD =           0.1682     CANT            
                 CHD =     1154166.1317                   CHD =           0.1437     TECH            
                 CHD =     3430975.1164                   CHD =           0.4404     BOL             

            TOTAL IN =    33041056.5782              TOTAL IN =           4.1042

          OUT:                                     OUT:
          ----                                     ----
              STO-SS =      287345.8565                STO-SS =       8.1784E-03     STORAGE         
              STO-SY =     1314358.5994                STO-SY =       3.6843E-02     STORAGE         
                 WEL =     7103215.0480                   WEL =           0.9461     WEL             
                 RCH =           0.0000                   RCH =           0.0000     RCHA            
                 CHD =     3117991.0784                   CHD =           0.3956     SEA             
                 CHD =     2810029.7635                   CHD =           0.3548     ETA             
                 CHD =     2540374.4256                   CHD =           0.3246     AGY             
                 CHD =     7512718.5912                   CHD =           0.9672     TET             
                 CHD =     2796843.5753                   CHD =           0.3604     REA             
                 CHD =     1527069.7120                   CHD =           0.1950     CANT            
                 CHD =     3098553.5946                   CHD =           0.3961     TECH            
                 CHD =      933193.6404                   CHD =           0.1195     BOL             

           TOTAL OUT =    33041693.8848             TOTAL OUT =           4.1044

            IN - OUT =        -637.3066              IN - OUT =      -2.5018E-04

 PERCENT DISCREPANCY =          -0.00     PERCENT DISCREPANCY =          -0.01




         TIME SUMMARY AT END OF TIME STEP    5 IN STRESS PERIOD    4
                    SECONDS     MINUTES      HOURS       DAYS        YEARS
                    -----------------------------------------------------------
   TIME STEP LENGTH 5.18400E+05  8640.0      144.00      6.0000     1.64271E-02
 STRESS PERIOD TIME 2.59200E+06  43200.      720.00      30.000     8.21355E-02
         TOTAL TIME 7.77600E+06 1.29600E+05  2160.0      90.000     0.24641    

 OUTPUT CONTROL FOR STRESS PERIOD 5 IS REPEATED USING SETTINGS FROM A PREVIOUS STRESS PERIOD.


 STRESS PERIOD 5 IS TRANSIENT


 REUSING CHDS FROM LAST STRESS PERIOD

 REUSING CHDS FROM LAST STRESS PERIOD

 REUSING CHDS FROM LAST STRESS PERIOD

 REUSING CHDS FROM LAST STRESS PERIOD

 REUSING CHDS FROM LAST STRESS PERIOD

 REUSING CHDS FROM LAST STRESS PERIOD

 REUSING CHDS FROM LAST STRESS PERIOD

 REUSING CHDS FROM LAST STRESS PERIOD
 UBDSV1 SAVING     FLOW-JA-FACE ON UNIT   1024 AT TIME STEP      5, STRESS PERIOD      5
 UBDSV06 SAVING       DATA-SPDIS IN MODEL 2D_TRANS         PACKAGE NPF             CONNECTED TO MODEL 2D_TRANS         PACKAGE NPF              ON UNIT   1024 AT TIME STEP      5, STRESS PERIOD      5
 UBDSV06 SAVING              CHD IN MODEL 2D_TRANS         PACKAGE 2D_TRANS        CONNECTED TO MODEL 2D_TRANS         PACKAGE SEA              ON UNIT   1024 AT TIME STEP      5, STRESS PERIOD      5
 UBDSV06 SAVING              CHD IN MODEL 2D_TRANS         PACKAGE 2D_TRANS        CONNECTED TO MODEL 2D_TRANS         PACKAGE ETA              ON UNIT   1024 AT TIME STEP      5, STRESS PERIOD      5
 UBDSV06 SAVING              CHD IN MODEL 2D_TRANS         PACKAGE 2D_TRANS        CONNECTED TO MODEL 2D_TRANS         PACKAGE AGY              ON UNIT   1024 AT TIME STEP      5, STRESS PERIOD      5
 UBDSV06 SAVING              CHD IN MODEL 2D_TRANS         PACKAGE 2D_TRANS        CONNECTED TO MODEL 2D_TRANS         PACKAGE TET              ON UNIT   1024 AT TIME STEP      5, STRESS PERIOD      5
 UBDSV06 SAVING              CHD IN MODEL 2D_TRANS         PACKAGE 2D_TRANS        CONNECTED TO MODEL 2D_TRANS         PACKAGE REA              ON UNIT   1024 AT TIME STEP      5, STRESS PERIOD      5
 UBDSV06 SAVING              CHD IN MODEL 2D_TRANS         PACKAGE 2D_TRANS        CONNECTED TO MODEL 2D_TRANS         PACKAGE CANT             ON UNIT   1024 AT TIME STEP      5, STRESS PERIOD      5
 UBDSV06 SAVING              CHD IN MODEL 2D_TRANS         PACKAGE 2D_TRANS        CONNECTED TO MODEL 2D_TRANS         PACKAGE TECH             ON UNIT   1024 AT TIME STEP      5, STRESS PERIOD      5
 UBDSV06 SAVING              CHD IN MODEL 2D_TRANS         PACKAGE 2D_TRANS        CONNECTED TO MODEL 2D_TRANS         PACKAGE BOL              ON UNIT   1024 AT TIME STEP      5, STRESS PERIOD      5

 HEAD WILL BE SAVED ON UNIT 1025 AT END OF TIME STEP    5, STRESS PERIOD    5


  VOLUME BUDGET FOR ENTIRE MODEL AT END OF TIME STEP    5, STRESS PERIOD   5
  ---------------------------------------------------------------------------------------------------

     CUMULATIVE VOLUME      L**3       RATES FOR THIS TIME STEP      L**3/T          PACKAGE NAME    
     ------------------                 ------------------------                     ----------------

           IN:                                      IN:
           ---                                      ---
              STO-SS =       87507.6975                STO-SS =       3.2831E-03     STORAGE         
              STO-SY =      415297.0538                STO-SY =       1.7046E-02     STORAGE         
                 WEL =           0.0000                   WEL =           0.0000     WEL             
                 RCH =    30276348.8228                   RCH =           3.3631     RCHA            
                 CHD =       38085.4734                   CHD =       4.8640E-03     SEA             
                 CHD =       48520.0161                   CHD =       6.0238E-03     ETA             
                 CHD =      294224.4644                   CHD =       2.6825E-02     AGY             
                 CHD =     2970614.0265                   CHD =           0.2860     TET             
                 CHD =     3618024.9105                   CHD =           0.3427     REA             
                 CHD =     1726690.3485                   CHD =           0.1643     CANT            
                 CHD =     1529073.2515                   CHD =           0.1458     TECH            
                 CHD =     4576183.2150                   CHD =           0.4433     BOL             

            TOTAL IN =    45580569.2800              TOTAL IN =           4.8032

          OUT:                                     OUT:
          ----                                     ----
              STO-SS =      453273.1873                STO-SS =       4.9033E-02     STORAGE         
              STO-SY =     2096281.7853                STO-SY =           0.2563     STORAGE         
                 WEL =    10372637.5108                   WEL =           1.2614     WEL             
                 RCH =           0.0000                   RCH =           0.0000     RCHA            
                 CHD =     4211692.2357                   CHD =           0.4267     SEA             
                 CHD =     3792894.8533                   CHD =           0.3835     ETA             
                 CHD =     3415150.3770                   CHD =           0.3424     AGY             
                 CHD =    10052471.5631                   CHD =           0.9845     TET             
                 CHD =     3745964.4377                   CHD =           0.3681     REA             
                 CHD =     2041201.4864                   CHD =           0.1999     CANT            
                 CHD =     4146784.1317                   CHD =           0.4071     TECH            
                 CHD =     1252861.4247                   CHD =           0.1243     BOL             

           TOTAL OUT =    45581212.9931             TOTAL OUT =           4.8032

            IN - OUT =        -643.7131              IN - OUT =      -8.3412E-07

 PERCENT DISCREPANCY =          -0.00     PERCENT DISCREPANCY =          -0.00




         TIME SUMMARY AT END OF TIME STEP    5 IN STRESS PERIOD    5
                    SECONDS     MINUTES      HOURS       DAYS        YEARS
                    -----------------------------------------------------------
   TIME STEP LENGTH 5.18400E+05  8640.0      144.00      6.0000     1.64271E-02
 STRESS PERIOD TIME 2.59200E+06  43200.      720.00      30.000     8.21355E-02
         TOTAL TIME 1.03680E+07 1.72800E+05  2880.0      120.00     0.32854    

 OUTPUT CONTROL FOR STRESS PERIOD 6 IS REPEATED USING SETTINGS FROM A PREVIOUS STRESS PERIOD.


 STRESS PERIOD 6 IS TRANSIENT


 REUSING CHDS FROM LAST STRESS PERIOD

 REUSING CHDS FROM LAST STRESS PERIOD

 REUSING CHDS FROM LAST STRESS PERIOD

 REUSING CHDS FROM LAST STRESS PERIOD

 REUSING CHDS FROM LAST STRESS PERIOD

 REUSING CHDS FROM LAST STRESS PERIOD

 REUSING CHDS FROM LAST STRESS PERIOD

 REUSING CHDS FROM LAST STRESS PERIOD
 UBDSV1 SAVING     FLOW-JA-FACE ON UNIT   1024 AT TIME STEP      5, STRESS PERIOD      6
 UBDSV06 SAVING       DATA-SPDIS IN MODEL 2D_TRANS         PACKAGE NPF             CONNECTED TO MODEL 2D_TRANS         PACKAGE NPF              ON UNIT   1024 AT TIME STEP      5, STRESS PERIOD      6
 UBDSV06 SAVING              CHD IN MODEL 2D_TRANS         PACKAGE 2D_TRANS        CONNECTED TO MODEL 2D_TRANS         PACKAGE SEA              ON UNIT   1024 AT TIME STEP      5, STRESS PERIOD      6
 UBDSV06 SAVING              CHD IN MODEL 2D_TRANS         PACKAGE 2D_TRANS        CONNECTED TO MODEL 2D_TRANS         PACKAGE ETA              ON UNIT   1024 AT TIME STEP      5, STRESS PERIOD      6
 UBDSV06 SAVING              CHD IN MODEL 2D_TRANS         PACKAGE 2D_TRANS        CONNECTED TO MODEL 2D_TRANS         PACKAGE AGY              ON UNIT   1024 AT TIME STEP      5, STRESS PERIOD      6
 UBDSV06 SAVING              CHD IN MODEL 2D_TRANS         PACKAGE 2D_TRANS        CONNECTED TO MODEL 2D_TRANS         PACKAGE TET              ON UNIT   1024 AT TIME STEP      5, STRESS PERIOD      6
 UBDSV06 SAVING              CHD IN MODEL 2D_TRANS         PACKAGE 2D_TRANS        CONNECTED TO MODEL 2D_TRANS         PACKAGE REA              ON UNIT   1024 AT TIME STEP      5, STRESS PERIOD      6
 UBDSV06 SAVING              CHD IN MODEL 2D_TRANS         PACKAGE 2D_TRANS        CONNECTED TO MODEL 2D_TRANS         PACKAGE CANT             ON UNIT   1024 AT TIME STEP      5, STRESS PERIOD      6
 UBDSV06 SAVING              CHD IN MODEL 2D_TRANS         PACKAGE 2D_TRANS        CONNECTED TO MODEL 2D_TRANS         PACKAGE TECH             ON UNIT   1024 AT TIME STEP      5, STRESS PERIOD      6
 UBDSV06 SAVING              CHD IN MODEL 2D_TRANS         PACKAGE 2D_TRANS        CONNECTED TO MODEL 2D_TRANS         PACKAGE BOL              ON UNIT   1024 AT TIME STEP      5, STRESS PERIOD      6

 HEAD WILL BE SAVED ON UNIT 1025 AT END OF TIME STEP    5, STRESS PERIOD    6


  VOLUME BUDGET FOR ENTIRE MODEL AT END OF TIME STEP    5, STRESS PERIOD   6
  ---------------------------------------------------------------------------------------------------

     CUMULATIVE VOLUME      L**3       RATES FOR THIS TIME STEP      L**3/T          PACKAGE NAME    
     ------------------                 ------------------------                     ----------------

           IN:                                      IN:
           ---                                      ---
              STO-SS =      198139.7034                STO-SS =       2.8733E-02     STORAGE         
              STO-SY =      851053.6934                STO-SY =           0.1206     STORAGE         
                 WEL =           0.0000                   WEL =           0.0000     WEL             
                 RCH =    38059471.1773                   RCH =           3.0027     RCHA            
                 CHD =       55117.3297                   CHD =       6.6499E-03     SEA             
                 CHD =       69649.2078                   CHD =       8.4538E-03     ETA             
                 CHD =      377926.0609                   CHD =       3.4383E-02     AGY             
                 CHD =     3770617.1125                   CHD =           0.3154     TET             
                 CHD =     4525313.3708                   CHD =           0.3530     REA             
                 CHD =     2159931.0838                   CHD =           0.1675     CANT            
                 CHD =     1933001.6825                   CHD =           0.1603     TECH            
                 CHD =     5753050.2927                   CHD =           0.4582     BOL             

            TOTAL IN =    57753270.7148              TOTAL IN =           4.6560

          OUT:                                     OUT:
          ----                                     ----
              STO-SS =      471681.1623                STO-SS =       5.6358E-03     STORAGE         
              STO-SY =     2213313.9873                STO-SY =       3.6227E-02     STORAGE         
                 WEL =    14273489.9764                   WEL =           1.5050     WEL             
                 RCH =           0.0000                   RCH =           0.0000     RCHA            
                 CHD =     5269202.0331                   CHD =           0.4027     SEA             
                 CHD =     4731416.1846                   CHD =           0.3568     ETA             
                 CHD =     4256563.8797                   CHD =           0.3184     AGY             
                 CHD =    12540294.4920                   CHD =           0.9515     TET             
                 CHD =     4685611.5313                   CHD =           0.3603     REA             
                 CHD =     2554306.2866                   CHD =           0.1976     CANT            
                 CHD =     5191326.6467                   CHD =           0.4018     TECH            
                 CHD =     1566652.6269                   CHD =           0.1200     BOL             

           TOTAL OUT =    57753858.8068             TOTAL OUT =           4.6560

            IN - OUT =        -588.0920              IN - OUT =       2.0868E-05

 PERCENT DISCREPANCY =          -0.00     PERCENT DISCREPANCY =           0.00




         TIME SUMMARY AT END OF TIME STEP    5 IN STRESS PERIOD    6
                    SECONDS     MINUTES      HOURS       DAYS        YEARS
                    -----------------------------------------------------------
   TIME STEP LENGTH 5.18400E+05  8640.0      144.00      6.0000     1.64271E-02
 STRESS PERIOD TIME 2.59200E+06  43200.      720.00      30.000     8.21355E-02
         TOTAL TIME 1.29600E+07 2.16000E+05  3600.0      150.00     0.41068    

 OUTPUT CONTROL FOR STRESS PERIOD 7 IS REPEATED USING SETTINGS FROM A PREVIOUS STRESS PERIOD.


 STRESS PERIOD 7 IS TRANSIENT


 REUSING CHDS FROM LAST STRESS PERIOD

 REUSING CHDS FROM LAST STRESS PERIOD

 REUSING CHDS FROM LAST STRESS PERIOD

 REUSING CHDS FROM LAST STRESS PERIOD

 REUSING CHDS FROM LAST STRESS PERIOD

 REUSING CHDS FROM LAST STRESS PERIOD

 REUSING CHDS FROM LAST STRESS PERIOD

 REUSING CHDS FROM LAST STRESS PERIOD
 UBDSV1 SAVING     FLOW-JA-FACE ON UNIT   1024 AT TIME STEP      5, STRESS PERIOD      7
 UBDSV06 SAVING       DATA-SPDIS IN MODEL 2D_TRANS         PACKAGE NPF             CONNECTED TO MODEL 2D_TRANS         PACKAGE NPF              ON UNIT   1024 AT TIME STEP      5, STRESS PERIOD      7
 UBDSV06 SAVING              CHD IN MODEL 2D_TRANS         PACKAGE 2D_TRANS        CONNECTED TO MODEL 2D_TRANS         PACKAGE SEA              ON UNIT   1024 AT TIME STEP      5, STRESS PERIOD      7
 UBDSV06 SAVING              CHD IN MODEL 2D_TRANS         PACKAGE 2D_TRANS        CONNECTED TO MODEL 2D_TRANS         PACKAGE ETA              ON UNIT   1024 AT TIME STEP      5, STRESS PERIOD      7
 UBDSV06 SAVING              CHD IN MODEL 2D_TRANS         PACKAGE 2D_TRANS        CONNECTED TO MODEL 2D_TRANS         PACKAGE AGY              ON UNIT   1024 AT TIME STEP      5, STRESS PERIOD      7
 UBDSV06 SAVING              CHD IN MODEL 2D_TRANS         PACKAGE 2D_TRANS        CONNECTED TO MODEL 2D_TRANS         PACKAGE TET              ON UNIT   1024 AT TIME STEP      5, STRESS PERIOD      7
 UBDSV06 SAVING              CHD IN MODEL 2D_TRANS         PACKAGE 2D_TRANS        CONNECTED TO MODEL 2D_TRANS         PACKAGE REA              ON UNIT   1024 AT TIME STEP      5, STRESS PERIOD      7
 UBDSV06 SAVING              CHD IN MODEL 2D_TRANS         PACKAGE 2D_TRANS        CONNECTED TO MODEL 2D_TRANS         PACKAGE CANT             ON UNIT   1024 AT TIME STEP      5, STRESS PERIOD      7
 UBDSV06 SAVING              CHD IN MODEL 2D_TRANS         PACKAGE 2D_TRANS        CONNECTED TO MODEL 2D_TRANS         PACKAGE TECH             ON UNIT   1024 AT TIME STEP      5, STRESS PERIOD      7
 UBDSV06 SAVING              CHD IN MODEL 2D_TRANS         PACKAGE 2D_TRANS        CONNECTED TO MODEL 2D_TRANS         PACKAGE BOL              ON UNIT   1024 AT TIME STEP      5, STRESS PERIOD      7

 HEAD WILL BE SAVED ON UNIT 1025 AT END OF TIME STEP    5, STRESS PERIOD    7


  VOLUME BUDGET FOR ENTIRE MODEL AT END OF TIME STEP    5, STRESS PERIOD   7
  ---------------------------------------------------------------------------------------------------

     CUMULATIVE VOLUME      L**3       RATES FOR THIS TIME STEP      L**3/T          PACKAGE NAME    
     ------------------                 ------------------------                     ----------------

           IN:                                      IN:
           ---                                      ---
              STO-SS =      878655.6395                STO-SS =           0.2068     STORAGE         
              STO-SY =     4089728.1253                STO-SY =           1.0738     STORAGE         
                 WEL =           0.0000                   WEL =           0.0000     WEL             
                 RCH =    42464718.4312                   RCH =           1.6996     RCHA            
                 CHD =       90605.2982                   CHD =       1.4151E-02     SEA             
                 CHD =      125042.0533                   CHD =       2.4620E-02     ETA             
                 CHD =      546342.7994                   CHD =       7.8488E-02     AGY             
                 CHD =     4838119.9241                   CHD =           0.4455     TET             
                 CHD =     5529021.0344                   CHD =           0.4022     REA             
                 CHD =     2632491.1909                   CHD =           0.1867     CANT            
                 CHD =     2439295.9073                   CHD =           0.2120     TECH            
                 CHD =     7038532.0050                   CHD =           0.5119     BOL             

            TOTAL IN =    70672552.4085              TOTAL IN =           4.8556

          OUT:                                     OUT:
          ----                                     ----
              STO-SS =      471681.1623                STO-SS =           0.0000     STORAGE         
              STO-SY =     2213313.9873                STO-SY =           0.0000     STORAGE         
                 WEL =    20124392.0517                   WEL =           2.2573     WEL             
                 RCH =           0.0000                   RCH =           0.0000     RCHA            
                 CHD =     6125095.1523                   CHD =           0.3087     SEA             
                 CHD =     5456878.1067                   CHD =           0.2598     ETA             
                 CHD =     4902633.8179                   CHD =           0.2233     AGY             
                 CHD =    14769506.0641                   CHD =           0.8258     TET             
                 CHD =     5557253.9906                   CHD =           0.3265     REA             
                 CHD =     3036261.1672                   CHD =           0.1819     CANT            
                 CHD =     6170822.3903                   CHD =           0.3689     TECH            
                 CHD =     1845128.0476                   CHD =           0.1035     BOL             

           TOTAL OUT =    70672965.9379             TOTAL OUT =           4.8556

            IN - OUT =        -413.5293              IN - OUT =       1.5359E-05

 PERCENT DISCREPANCY =          -0.00     PERCENT DISCREPANCY =           0.00




         TIME SUMMARY AT END OF TIME STEP    5 IN STRESS PERIOD    7
                    SECONDS     MINUTES      HOURS       DAYS        YEARS
                    -----------------------------------------------------------
   TIME STEP LENGTH 5.18400E+05  8640.0      144.00      6.0000     1.64271E-02
 STRESS PERIOD TIME 2.59200E+06  43200.      720.00      30.000     8.21355E-02
         TOTAL TIME 1.55520E+07 2.59200E+05  4320.0      180.00     0.49281    

 OUTPUT CONTROL FOR STRESS PERIOD 8 IS REPEATED USING SETTINGS FROM A PREVIOUS STRESS PERIOD.


 STRESS PERIOD 8 IS TRANSIENT


 REUSING CHDS FROM LAST STRESS PERIOD

 REUSING CHDS FROM LAST STRESS PERIOD

 REUSING CHDS FROM LAST STRESS PERIOD

 REUSING CHDS FROM LAST STRESS PERIOD

 REUSING CHDS FROM LAST STRESS PERIOD

 REUSING CHDS FROM LAST STRESS PERIOD

 REUSING CHDS FROM LAST STRESS PERIOD

 REUSING CHDS FROM LAST STRESS PERIOD
 UBDSV1 SAVING     FLOW-JA-FACE ON UNIT   1024 AT TIME STEP      5, STRESS PERIOD      8
 UBDSV06 SAVING       DATA-SPDIS IN MODEL 2D_TRANS         PACKAGE NPF             CONNECTED TO MODEL 2D_TRANS         PACKAGE NPF              ON UNIT   1024 AT TIME STEP      5, STRESS PERIOD      8
 UBDSV06 SAVING              CHD IN MODEL 2D_TRANS         PACKAGE 2D_TRANS        CONNECTED TO MODEL 2D_TRANS         PACKAGE SEA              ON UNIT   1024 AT TIME STEP      5, STRESS PERIOD      8
 UBDSV06 SAVING              CHD IN MODEL 2D_TRANS         PACKAGE 2D_TRANS        CONNECTED TO MODEL 2D_TRANS         PACKAGE ETA              ON UNIT   1024 AT TIME STEP      5, STRESS PERIOD      8
 UBDSV06 SAVING              CHD IN MODEL 2D_TRANS         PACKAGE 2D_TRANS        CONNECTED TO MODEL 2D_TRANS         PACKAGE AGY              ON UNIT   1024 AT TIME STEP      5, STRESS PERIOD      8
 UBDSV06 SAVING              CHD IN MODEL 2D_TRANS         PACKAGE 2D_TRANS        CONNECTED TO MODEL 2D_TRANS         PACKAGE TET              ON UNIT   1024 AT TIME STEP      5, STRESS PERIOD      8
 UBDSV06 SAVING              CHD IN MODEL 2D_TRANS         PACKAGE 2D_TRANS        CONNECTED TO MODEL 2D_TRANS         PACKAGE REA              ON UNIT   1024 AT TIME STEP      5, STRESS PERIOD      8
 UBDSV06 SAVING              CHD IN MODEL 2D_TRANS         PACKAGE 2D_TRANS        CONNECTED TO MODEL 2D_TRANS         PACKAGE CANT             ON UNIT   1024 AT TIME STEP      5, STRESS PERIOD      8
 UBDSV06 SAVING              CHD IN MODEL 2D_TRANS         PACKAGE 2D_TRANS        CONNECTED TO MODEL 2D_TRANS         PACKAGE TECH             ON UNIT   1024 AT TIME STEP      5, STRESS PERIOD      8
 UBDSV06 SAVING              CHD IN MODEL 2D_TRANS         PACKAGE 2D_TRANS        CONNECTED TO MODEL 2D_TRANS         PACKAGE BOL              ON UNIT   1024 AT TIME STEP      5, STRESS PERIOD      8

 HEAD WILL BE SAVED ON UNIT 1025 AT END OF TIME STEP    5, STRESS PERIOD    8


  VOLUME BUDGET FOR ENTIRE MODEL AT END OF TIME STEP    5, STRESS PERIOD   8
  ---------------------------------------------------------------------------------------------------

     CUMULATIVE VOLUME      L**3       RATES FOR THIS TIME STEP      L**3/T          PACKAGE NAME    
     ------------------                 ------------------------                     ----------------

           IN:                                      IN:
           ---                                      ---
              STO-SS =     1652187.9035                STO-SS =           0.2547     STORAGE         
              STO-SY =     8203382.6870                STO-SY =           1.4143     STORAGE         
                 WEL =           0.0000                   WEL =           0.0000     WEL             
                 RCH =    45126546.2767                   RCH =           1.0269     RCHA            
                 CHD =      140687.0381                   CHD =       1.9973E-02     SEA             
                 CHD =      226633.7684                   CHD =       4.4190E-02     ETA             
                 CHD =      852599.9780                   CHD =           0.1370     AGY             
                 CHD =     6219622.2498                   CHD =           0.5677     TET             
                 CHD =     6656396.1136                   CHD =           0.4508     REA             
                 CHD =     3147857.7964                   CHD =           0.2036     CANT            
                 CHD =     3078461.4301                   CHD =           0.2636     TECH            
                 CHD =     8447241.7836                   CHD =           0.5570     BOL             

            TOTAL IN =    83751617.0252              TOTAL IN =           4.9397

          OUT:                                     OUT:
          ----                                     ----
              STO-SS =      471681.1623                STO-SS =           0.0000     STORAGE         
              STO-SY =     2213313.9873                STO-SY =           0.0000     STORAGE         
                 WEL =    27154516.5144                   WEL =           2.7122     WEL             
                 RCH =           0.0000                   RCH =           0.0000     RCHA            
                 CHD =     6794831.5557                   CHD =           0.2407     SEA             
                 CHD =     6011171.9440                   CHD =           0.1998     ETA             
                 CHD =     5365278.9043                   CHD =           0.1598     AGY             
                 CHD =    16731954.3951                   CHD =           0.7264     TET             
                 CHD =     6355789.6006                   CHD =           0.2995     REA             
                 CHD =     3482208.9182                   CHD =           0.1679     CANT            
                 CHD =     7079052.1181                   CHD =           0.3417     TECH            
                 CHD =     2091946.5788                   CHD =       9.1638E-02     BOL             

           TOTAL OUT =    83751745.6787             TOTAL OUT =           4.9396

            IN - OUT =        -128.6535              IN - OUT =       7.8164E-05

 PERCENT DISCREPANCY =          -0.00     PERCENT DISCREPANCY =           0.00




         TIME SUMMARY AT END OF TIME STEP    5 IN STRESS PERIOD    8
                    SECONDS     MINUTES      HOURS       DAYS        YEARS
                    -----------------------------------------------------------
   TIME STEP LENGTH 5.18400E+05  8640.0      144.00      6.0000     1.64271E-02
 STRESS PERIOD TIME 2.59200E+06  43200.      720.00      30.000     8.21355E-02
         TOTAL TIME 1.81440E+07 3.02400E+05  5040.0      210.00     0.57495    

 OUTPUT CONTROL FOR STRESS PERIOD 9 IS REPEATED USING SETTINGS FROM A PREVIOUS STRESS PERIOD.


 STRESS PERIOD 9 IS TRANSIENT


 REUSING CHDS FROM LAST STRESS PERIOD

 REUSING CHDS FROM LAST STRESS PERIOD

 REUSING CHDS FROM LAST STRESS PERIOD

 REUSING CHDS FROM LAST STRESS PERIOD

 REUSING CHDS FROM LAST STRESS PERIOD

 REUSING CHDS FROM LAST STRESS PERIOD

 REUSING CHDS FROM LAST STRESS PERIOD

 REUSING CHDS FROM LAST STRESS PERIOD
 UBDSV1 SAVING     FLOW-JA-FACE ON UNIT   1024 AT TIME STEP      5, STRESS PERIOD      9
 UBDSV06 SAVING       DATA-SPDIS IN MODEL 2D_TRANS         PACKAGE NPF             CONNECTED TO MODEL 2D_TRANS         PACKAGE NPF              ON UNIT   1024 AT TIME STEP      5, STRESS PERIOD      9
 UBDSV06 SAVING              CHD IN MODEL 2D_TRANS         PACKAGE 2D_TRANS        CONNECTED TO MODEL 2D_TRANS         PACKAGE SEA              ON UNIT   1024 AT TIME STEP      5, STRESS PERIOD      9
 UBDSV06 SAVING              CHD IN MODEL 2D_TRANS         PACKAGE 2D_TRANS        CONNECTED TO MODEL 2D_TRANS         PACKAGE ETA              ON UNIT   1024 AT TIME STEP      5, STRESS PERIOD      9
 UBDSV06 SAVING              CHD IN MODEL 2D_TRANS         PACKAGE 2D_TRANS        CONNECTED TO MODEL 2D_TRANS         PACKAGE AGY              ON UNIT   1024 AT TIME STEP      5, STRESS PERIOD      9
 UBDSV06 SAVING              CHD IN MODEL 2D_TRANS         PACKAGE 2D_TRANS        CONNECTED TO MODEL 2D_TRANS         PACKAGE TET              ON UNIT   1024 AT TIME STEP      5, STRESS PERIOD      9
 UBDSV06 SAVING              CHD IN MODEL 2D_TRANS         PACKAGE 2D_TRANS        CONNECTED TO MODEL 2D_TRANS         PACKAGE REA              ON UNIT   1024 AT TIME STEP      5, STRESS PERIOD      9
 UBDSV06 SAVING              CHD IN MODEL 2D_TRANS         PACKAGE 2D_TRANS        CONNECTED TO MODEL 2D_TRANS         PACKAGE CANT             ON UNIT   1024 AT TIME STEP      5, STRESS PERIOD      9
 UBDSV06 SAVING              CHD IN MODEL 2D_TRANS         PACKAGE 2D_TRANS        CONNECTED TO MODEL 2D_TRANS         PACKAGE TECH             ON UNIT   1024 AT TIME STEP      5, STRESS PERIOD      9
 UBDSV06 SAVING              CHD IN MODEL 2D_TRANS         PACKAGE 2D_TRANS        CONNECTED TO MODEL 2D_TRANS         PACKAGE BOL              ON UNIT   1024 AT TIME STEP      5, STRESS PERIOD      9

 HEAD WILL BE SAVED ON UNIT 1025 AT END OF TIME STEP    5, STRESS PERIOD    9


  VOLUME BUDGET FOR ENTIRE MODEL AT END OF TIME STEP    5, STRESS PERIOD   9
  ---------------------------------------------------------------------------------------------------

     CUMULATIVE VOLUME      L**3       RATES FOR THIS TIME STEP      L**3/T          PACKAGE NAME    
     ------------------                 ------------------------                     ----------------

           IN:                                      IN:
           ---                                      ---
              STO-SS =     1973508.5405                STO-SS =           0.1169     STORAGE         
              STO-SY =    10059611.0370                STO-SY =           0.6735     STORAGE         
                 WEL =           0.0000                   WEL =           0.0000     WEL             
                 RCH =    50107744.5849                   RCH =           1.9218     RCHA            
                 CHD =      187013.0184                   CHD =       1.7753E-02     SEA             
                 CHD =      338504.8243                   CHD =       4.3636E-02     ETA             
                 CHD =     1203342.3568                   CHD =           0.1380     AGY             
                 CHD =     7698231.2093                   CHD =           0.5773     TET             
                 CHD =     7835166.0999                   CHD =           0.4594     REA             
                 CHD =     3671955.1910                   CHD =           0.2028     CANT            
                 CHD =     3780737.0190                   CHD =           0.2765     TECH            
                 CHD =     9889739.3995                   CHD =           0.5579     BOL             

            TOTAL IN =    96745553.2807              TOTAL IN =           4.9857

          OUT:                                     OUT:
          ----                                     ----
              STO-SS =      488964.7163                STO-SS =       6.9288E-04     STORAGE         
              STO-SY =     2255452.9418                STO-SY =       4.2234E-03     STORAGE         
                 WEL =    34184640.9770                   WEL =           2.7122     WEL             
                 RCH =           0.0000                   RCH =           0.0000     RCHA            
                 CHD =     7476680.2786                   CHD =           0.2646     SEA             
                 CHD =     6587808.9636                   CHD =           0.2239     ETA             
                 CHD =     5776827.3865                   CHD =           0.1554     AGY             
                 CHD =    18617935.7403                   CHD =           0.7220     TET             
                 CHD =     7131073.7120                   CHD =           0.2972     REA             
                 CHD =     3920283.0096                   CHD =           0.1687     CANT            
                 CHD =     7971705.5209                   CHD =           0.3433     TECH            
                 CHD =     2334198.0233                   CHD =       9.3322E-02     BOL             

           TOTAL OUT =    96745571.2701             TOTAL OUT =           4.9856

            IN - OUT =         -17.9893              IN - OUT =       2.9398E-05

 PERCENT DISCREPANCY =          -0.00     PERCENT DISCREPANCY =           0.00




         TIME SUMMARY AT END OF TIME STEP    5 IN STRESS PERIOD    9
                    SECONDS     MINUTES      HOURS       DAYS        YEARS
                    -----------------------------------------------------------
   TIME STEP LENGTH 5.18400E+05  8640.0      144.00      6.0000     1.64271E-02
 STRESS PERIOD TIME 2.59200E+06  43200.      720.00      30.000     8.21355E-02
         TOTAL TIME 2.07360E+07 3.45600E+05  5760.0      240.00     0.65708    

 OUTPUT CONTROL FOR STRESS PERIOD 10 IS REPEATED USING SETTINGS FROM A PREVIOUS STRESS PERIOD.


 STRESS PERIOD 10 IS TRANSIENT


 REUSING CHDS FROM LAST STRESS PERIOD

 REUSING CHDS FROM LAST STRESS PERIOD

 REUSING CHDS FROM LAST STRESS PERIOD

 REUSING CHDS FROM LAST STRESS PERIOD

 REUSING CHDS FROM LAST STRESS PERIOD

 REUSING CHDS FROM LAST STRESS PERIOD

 REUSING CHDS FROM LAST STRESS PERIOD

 REUSING CHDS FROM LAST STRESS PERIOD
 UBDSV1 SAVING     FLOW-JA-FACE ON UNIT   1024 AT TIME STEP      5, STRESS PERIOD     10
 UBDSV06 SAVING       DATA-SPDIS IN MODEL 2D_TRANS         PACKAGE NPF             CONNECTED TO MODEL 2D_TRANS         PACKAGE NPF              ON UNIT   1024 AT TIME STEP      5, STRESS PERIOD     10
 UBDSV06 SAVING              CHD IN MODEL 2D_TRANS         PACKAGE 2D_TRANS        CONNECTED TO MODEL 2D_TRANS         PACKAGE SEA              ON UNIT   1024 AT TIME STEP      5, STRESS PERIOD     10
 UBDSV06 SAVING              CHD IN MODEL 2D_TRANS         PACKAGE 2D_TRANS        CONNECTED TO MODEL 2D_TRANS         PACKAGE ETA              ON UNIT   1024 AT TIME STEP      5, STRESS PERIOD     10
 UBDSV06 SAVING              CHD IN MODEL 2D_TRANS         PACKAGE 2D_TRANS        CONNECTED TO MODEL 2D_TRANS         PACKAGE AGY              ON UNIT   1024 AT TIME STEP      5, STRESS PERIOD     10
 UBDSV06 SAVING              CHD IN MODEL 2D_TRANS         PACKAGE 2D_TRANS        CONNECTED TO MODEL 2D_TRANS         PACKAGE TET              ON UNIT   1024 AT TIME STEP      5, STRESS PERIOD     10
 UBDSV06 SAVING              CHD IN MODEL 2D_TRANS         PACKAGE 2D_TRANS        CONNECTED TO MODEL 2D_TRANS         PACKAGE REA              ON UNIT   1024 AT TIME STEP      5, STRESS PERIOD     10
 UBDSV06 SAVING              CHD IN MODEL 2D_TRANS         PACKAGE 2D_TRANS        CONNECTED TO MODEL 2D_TRANS         PACKAGE CANT             ON UNIT   1024 AT TIME STEP      5, STRESS PERIOD     10
 UBDSV06 SAVING              CHD IN MODEL 2D_TRANS         PACKAGE 2D_TRANS        CONNECTED TO MODEL 2D_TRANS         PACKAGE TECH             ON UNIT   1024 AT TIME STEP      5, STRESS PERIOD     10
 UBDSV06 SAVING              CHD IN MODEL 2D_TRANS         PACKAGE 2D_TRANS        CONNECTED TO MODEL 2D_TRANS         PACKAGE BOL              ON UNIT   1024 AT TIME STEP      5, STRESS PERIOD     10

 HEAD WILL BE SAVED ON UNIT 1025 AT END OF TIME STEP    5, STRESS PERIOD   10


  VOLUME BUDGET FOR ENTIRE MODEL AT END OF TIME STEP    5, STRESS PERIOD  10
  ---------------------------------------------------------------------------------------------------

     CUMULATIVE VOLUME      L**3       RATES FOR THIS TIME STEP      L**3/T          PACKAGE NAME    
     ------------------                 ------------------------                     ----------------

           IN:                                      IN:
           ---                                      ---
              STO-SS =     1995222.5589                STO-SS =       3.8046E-03     STORAGE         
              STO-SY =    10191755.5061                STO-SY =       2.3570E-02     STORAGE         
                 WEL =           0.0000                   WEL =           0.0000     WEL             
                 RCH =    57470578.3357                   RCH =           2.8406     RCHA            
                 CHD =      200836.4569                   CHD =       4.8817E-03     SEA             
                 CHD =      374285.9468                   CHD =       8.7258E-03     ETA             
                 CHD =     1410156.0123                   CHD =       6.2602E-02     AGY             
                 CHD =     8805745.8028                   CHD =           0.3866     TET             
                 CHD =     8930201.0209                   CHD =           0.4085     REA             
                 CHD =     4153225.4601                   CHD =           0.1825     CANT            
                 CHD =     4378557.7042                   CHD =           0.2103     TECH            
                 CHD =    11193827.6198                   CHD =           0.4804     BOL             

            TOTAL IN =   109104392.4245              TOTAL IN =           4.6124

          OUT:                                     OUT:
          ----                                     ----
              STO-SS =      935948.8622                STO-SS =           0.1254     STORAGE         
              STO-SY =     4445649.1673                STO-SY =           0.6235     STORAGE         
                 WEL =    37274730.9970                   WEL =           1.1922     WEL             
                 RCH =           0.0000                   RCH =           0.0000     RCHA            
                 CHD =     8325234.2568                   CHD =           0.3487     SEA             
                 CHD =     7322075.4086                   CHD =           0.3026     ETA             
                 CHD =     6296252.3361                   CHD =           0.2222     AGY             
                 CHD =    20680546.9133                   CHD =           0.8277     TET             
                 CHD =     7942018.4928                   CHD =           0.3193     REA             
                 CHD =     4384699.9945                   CHD =           0.1819     CANT            
                 CHD =     8900117.5521                   CHD =           0.3641     TECH            
                 CHD =     2597141.9622                   CHD =           0.1049     BOL             

           TOTAL OUT =   109104415.9430             TOTAL OUT =           4.6124

            IN - OUT =         -23.5185              IN - OUT =       1.8680E-05

 PERCENT DISCREPANCY =          -0.00     PERCENT DISCREPANCY =           0.00




         TIME SUMMARY AT END OF TIME STEP    5 IN STRESS PERIOD   10
                    SECONDS     MINUTES      HOURS       DAYS        YEARS
                    -----------------------------------------------------------
   TIME STEP LENGTH 5.18400E+05  8640.0      144.00      6.0000     1.64271E-02
 STRESS PERIOD TIME 2.59200E+06  43200.      720.00      30.000     8.21355E-02
         TOTAL TIME 2.33280E+07 3.88800E+05  6480.0      270.00     0.73922    

 OUTPUT CONTROL FOR STRESS PERIOD 11 IS REPEATED USING SETTINGS FROM A PREVIOUS STRESS PERIOD.


 STRESS PERIOD 11 IS TRANSIENT


 REUSING CHDS FROM LAST STRESS PERIOD

 REUSING CHDS FROM LAST STRESS PERIOD

 REUSING CHDS FROM LAST STRESS PERIOD

 REUSING CHDS FROM LAST STRESS PERIOD

 REUSING CHDS FROM LAST STRESS PERIOD

 REUSING CHDS FROM LAST STRESS PERIOD

 REUSING CHDS FROM LAST STRESS PERIOD

 REUSING CHDS FROM LAST STRESS PERIOD
 UBDSV1 SAVING     FLOW-JA-FACE ON UNIT   1024 AT TIME STEP      5, STRESS PERIOD     11
 UBDSV06 SAVING       DATA-SPDIS IN MODEL 2D_TRANS         PACKAGE NPF             CONNECTED TO MODEL 2D_TRANS         PACKAGE NPF              ON UNIT   1024 AT TIME STEP      5, STRESS PERIOD     11
 UBDSV06 SAVING              CHD IN MODEL 2D_TRANS         PACKAGE 2D_TRANS        CONNECTED TO MODEL 2D_TRANS         PACKAGE SEA              ON UNIT   1024 AT TIME STEP      5, STRESS PERIOD     11
 UBDSV06 SAVING              CHD IN MODEL 2D_TRANS         PACKAGE 2D_TRANS        CONNECTED TO MODEL 2D_TRANS         PACKAGE ETA              ON UNIT   1024 AT TIME STEP      5, STRESS PERIOD     11
 UBDSV06 SAVING              CHD IN MODEL 2D_TRANS         PACKAGE 2D_TRANS        CONNECTED TO MODEL 2D_TRANS         PACKAGE AGY              ON UNIT   1024 AT TIME STEP      5, STRESS PERIOD     11
 UBDSV06 SAVING              CHD IN MODEL 2D_TRANS         PACKAGE 2D_TRANS        CONNECTED TO MODEL 2D_TRANS         PACKAGE TET              ON UNIT   1024 AT TIME STEP      5, STRESS PERIOD     11
 UBDSV06 SAVING              CHD IN MODEL 2D_TRANS         PACKAGE 2D_TRANS        CONNECTED TO MODEL 2D_TRANS         PACKAGE REA              ON UNIT   1024 AT TIME STEP      5, STRESS PERIOD     11
 UBDSV06 SAVING              CHD IN MODEL 2D_TRANS         PACKAGE 2D_TRANS        CONNECTED TO MODEL 2D_TRANS         PACKAGE CANT             ON UNIT   1024 AT TIME STEP      5, STRESS PERIOD     11
 UBDSV06 SAVING              CHD IN MODEL 2D_TRANS         PACKAGE 2D_TRANS        CONNECTED TO MODEL 2D_TRANS         PACKAGE TECH             ON UNIT   1024 AT TIME STEP      5, STRESS PERIOD     11
 UBDSV06 SAVING              CHD IN MODEL 2D_TRANS         PACKAGE 2D_TRANS        CONNECTED TO MODEL 2D_TRANS         PACKAGE BOL              ON UNIT   1024 AT TIME STEP      5, STRESS PERIOD     11

 HEAD WILL BE SAVED ON UNIT 1025 AT END OF TIME STEP    5, STRESS PERIOD   11


  VOLUME BUDGET FOR ENTIRE MODEL AT END OF TIME STEP    5, STRESS PERIOD  11
  ---------------------------------------------------------------------------------------------------

     CUMULATIVE VOLUME      L**3       RATES FOR THIS TIME STEP      L**3/T          PACKAGE NAME    
     ------------------                 ------------------------                     ----------------

           IN:                                      IN:
           ---                                      ---
              STO-SS =     1995222.5589                STO-SS =           0.0000     STORAGE         
              STO-SY =    10191755.5061                STO-SY =           0.0000     STORAGE         
                 WEL =           0.0000                   WEL =           0.0000     WEL             
                 RCH =    71480198.5737                   RCH =           5.4049     RCHA            
                 CHD =      204632.8709                   CHD =       1.3616E-03     SEA             
                 CHD =      382415.8879                   CHD =       3.0174E-03     ETA             
                 CHD =     1477449.7238                   CHD =       1.5874E-02     AGY             
                 CHD =     9513941.7526                   CHD =           0.2363     TET             
                 CHD =     9856288.0615                   CHD =           0.3363     REA             
                 CHD =     4570411.6577                   CHD =           0.1532     CANT            
                 CHD =     4804422.4836                   CHD =           0.1449     TECH            
                 CHD =    12314100.8755                   CHD =           0.4148     BOL             

            TOTAL IN =   126790839.9522              TOTAL IN =           6.7107

          OUT:                                     OUT:
          ----                                     ----
              STO-SS =     2107257.6679                STO-SS =           0.3893     STORAGE         
              STO-SY =    10079669.4063                STO-SY =           1.8609     STORAGE         
                 WEL =    39473434.5511                   WEL =           0.8483     WEL             
                 RCH =           0.0000                   RCH =           0.0000     RCHA            
                 CHD =     9579895.1949                   CHD =           0.5232     SEA             
                 CHD =     8475753.7256                   CHD =           0.4886     ETA             
                 CHD =     7190592.0650                   CHD =           0.4046     AGY             
                 CHD =    23219424.5764                   CHD =           1.0453     TET             
                 CHD =     8869677.0421                   CHD =           0.3767     REA             
                 CHD =     4909341.3540                   CHD =           0.2109     CANT            
                 CHD =     9957739.3056                   CHD =           0.4261     TECH            
                 CHD =     2928116.2091                   CHD =           0.1367     BOL             

           TOTAL OUT =   126790901.0980             TOTAL OUT =           6.7107

            IN - OUT =         -61.1458              IN - OUT =       1.1378E-05

 PERCENT DISCREPANCY =          -0.00     PERCENT DISCREPANCY =           0.00




         TIME SUMMARY AT END OF TIME STEP    5 IN STRESS PERIOD   11
                    SECONDS     MINUTES      HOURS       DAYS        YEARS
                    -----------------------------------------------------------
   TIME STEP LENGTH 5.18400E+05  8640.0      144.00      6.0000     1.64271E-02
 STRESS PERIOD TIME 2.59200E+06  43200.      720.00      30.000     8.21355E-02
         TOTAL TIME 2.59200E+07 4.32000E+05  7200.0      300.00     0.82136    

 OUTPUT CONTROL FOR STRESS PERIOD 12 IS REPEATED USING SETTINGS FROM A PREVIOUS STRESS PERIOD.


 STRESS PERIOD 12 IS TRANSIENT


 REUSING CHDS FROM LAST STRESS PERIOD

 REUSING CHDS FROM LAST STRESS PERIOD

 REUSING CHDS FROM LAST STRESS PERIOD

 REUSING CHDS FROM LAST STRESS PERIOD

 REUSING CHDS FROM LAST STRESS PERIOD

 REUSING CHDS FROM LAST STRESS PERIOD

 REUSING CHDS FROM LAST STRESS PERIOD

 REUSING CHDS FROM LAST STRESS PERIOD
 UBDSV1 SAVING     FLOW-JA-FACE ON UNIT   1024 AT TIME STEP      5, STRESS PERIOD     12
 UBDSV06 SAVING       DATA-SPDIS IN MODEL 2D_TRANS         PACKAGE NPF             CONNECTED TO MODEL 2D_TRANS         PACKAGE NPF              ON UNIT   1024 AT TIME STEP      5, STRESS PERIOD     12
 UBDSV06 SAVING              CHD IN MODEL 2D_TRANS         PACKAGE 2D_TRANS        CONNECTED TO MODEL 2D_TRANS         PACKAGE SEA              ON UNIT   1024 AT TIME STEP      5, STRESS PERIOD     12
 UBDSV06 SAVING              CHD IN MODEL 2D_TRANS         PACKAGE 2D_TRANS        CONNECTED TO MODEL 2D_TRANS         PACKAGE ETA              ON UNIT   1024 AT TIME STEP      5, STRESS PERIOD     12
 UBDSV06 SAVING              CHD IN MODEL 2D_TRANS         PACKAGE 2D_TRANS        CONNECTED TO MODEL 2D_TRANS         PACKAGE AGY              ON UNIT   1024 AT TIME STEP      5, STRESS PERIOD     12
 UBDSV06 SAVING              CHD IN MODEL 2D_TRANS         PACKAGE 2D_TRANS        CONNECTED TO MODEL 2D_TRANS         PACKAGE TET              ON UNIT   1024 AT TIME STEP      5, STRESS PERIOD     12
 UBDSV06 SAVING              CHD IN MODEL 2D_TRANS         PACKAGE 2D_TRANS        CONNECTED TO MODEL 2D_TRANS         PACKAGE REA              ON UNIT   1024 AT TIME STEP      5, STRESS PERIOD     12
 UBDSV06 SAVING              CHD IN MODEL 2D_TRANS         PACKAGE 2D_TRANS        CONNECTED TO MODEL 2D_TRANS         PACKAGE CANT             ON UNIT   1024 AT TIME STEP      5, STRESS PERIOD     12
 UBDSV06 SAVING              CHD IN MODEL 2D_TRANS         PACKAGE 2D_TRANS        CONNECTED TO MODEL 2D_TRANS         PACKAGE TECH             ON UNIT   1024 AT TIME STEP      5, STRESS PERIOD     12
 UBDSV06 SAVING              CHD IN MODEL 2D_TRANS         PACKAGE 2D_TRANS        CONNECTED TO MODEL 2D_TRANS         PACKAGE BOL              ON UNIT   1024 AT TIME STEP      5, STRESS PERIOD     12

 HEAD WILL BE SAVED ON UNIT 1025 AT END OF TIME STEP    5, STRESS PERIOD   12


  VOLUME BUDGET FOR ENTIRE MODEL AT END OF TIME STEP    5, STRESS PERIOD  12
  ---------------------------------------------------------------------------------------------------

     CUMULATIVE VOLUME      L**3       RATES FOR THIS TIME STEP      L**3/T          PACKAGE NAME    
     ------------------                 ------------------------                     ----------------

           IN:                                      IN:
           ---                                      ---
              STO-SS =     2049849.2000                STO-SS =       3.4342E-03     STORAGE         
              STO-SY =    10302476.8782                STO-SY =       1.0434E-02     STORAGE         
                 WEL =           0.0000                   WEL =           0.0000     WEL             
                 RCH =    80664282.9514                   RCH =           3.5432     RCHA            
                 CHD =      210549.0492                   CHD =       2.3250E-03     SEA             
                 CHD =      391596.8379                   CHD =       3.5674E-03     ETA             
                 CHD =     1522388.3946                   CHD =       1.7184E-02     AGY             
                 CHD =    10157004.4911                   CHD =           0.2476     TET             
                 CHD =    10734280.0047                   CHD =           0.3363     REA             
                 CHD =     4980054.5836                   CHD =           0.1586     CANT            
                 CHD =     5175513.9488                   CHD =           0.1394     TECH            
                 CHD =    13408507.6166                   CHD =           0.4230     BOL             

            TOTAL IN =   139596503.9561              TOTAL IN =           4.8850

          OUT:                                     OUT:
          ----                                     ----
              STO-SS =     2370235.4237                STO-SS =       9.5371E-02     STORAGE         
              STO-SY =    11519462.4480                STO-SY =           0.5112     STORAGE         
                 WEL =    41672138.1052                   WEL =           0.8483     WEL             
                 RCH =           0.0000                   RCH =           0.0000     RCHA            
                 CHD =    10785791.8131                   CHD =           0.4580     SEA             
                 CHD =     9592312.4133                   CHD =           0.4251     ETA             
                 CHD =     8204094.1146                   CHD =           0.3947     AGY             
                 CHD =    25867999.4540                   CHD =           1.0246     TET             
                 CHD =     9835861.6443                   CHD =           0.3747     REA             
                 CHD =     5444376.0450                   CHD =           0.2060     CANT            
                 CHD =    11037132.7647                   CHD =           0.4165     TECH            
                 CHD =     3267161.1609                   CHD =           0.1306     BOL             

           TOTAL OUT =   139596565.3869             TOTAL OUT =           4.8850

            IN - OUT =         -61.4308              IN - OUT =       3.1146E-05

 PERCENT DISCREPANCY =          -0.00     PERCENT DISCREPANCY =           0.00




         TIME SUMMARY AT END OF TIME STEP    5 IN STRESS PERIOD   12
                    SECONDS     MINUTES      HOURS       DAYS        YEARS
                    -----------------------------------------------------------
   TIME STEP LENGTH 5.18400E+05  8640.0      144.00      6.0000     1.64271E-02
 STRESS PERIOD TIME 2.59200E+06  43200.      720.00      30.000     8.21355E-02
         TOTAL TIME 2.85120E+07 4.75200E+05  7920.0      330.00     0.90349    

 OUTPUT CONTROL FOR STRESS PERIOD 13 IS REPEATED USING SETTINGS FROM A PREVIOUS STRESS PERIOD.


 STRESS PERIOD 13 IS TRANSIENT


 REUSING CHDS FROM LAST STRESS PERIOD

 REUSING CHDS FROM LAST STRESS PERIOD

 REUSING CHDS FROM LAST STRESS PERIOD

 REUSING CHDS FROM LAST STRESS PERIOD

 REUSING CHDS FROM LAST STRESS PERIOD

 REUSING CHDS FROM LAST STRESS PERIOD

 REUSING CHDS FROM LAST STRESS PERIOD

 REUSING CHDS FROM LAST STRESS PERIOD
 UBDSV1 SAVING     FLOW-JA-FACE ON UNIT   1024 AT TIME STEP      5, STRESS PERIOD     13
 UBDSV06 SAVING       DATA-SPDIS IN MODEL 2D_TRANS         PACKAGE NPF             CONNECTED TO MODEL 2D_TRANS         PACKAGE NPF              ON UNIT   1024 AT TIME STEP      5, STRESS PERIOD     13
 UBDSV06 SAVING              CHD IN MODEL 2D_TRANS         PACKAGE 2D_TRANS        CONNECTED TO MODEL 2D_TRANS         PACKAGE SEA              ON UNIT   1024 AT TIME STEP      5, STRESS PERIOD     13
 UBDSV06 SAVING              CHD IN MODEL 2D_TRANS         PACKAGE 2D_TRANS        CONNECTED TO MODEL 2D_TRANS         PACKAGE ETA              ON UNIT   1024 AT TIME STEP      5, STRESS PERIOD     13
 UBDSV06 SAVING              CHD IN MODEL 2D_TRANS         PACKAGE 2D_TRANS        CONNECTED TO MODEL 2D_TRANS         PACKAGE AGY              ON UNIT   1024 AT TIME STEP      5, STRESS PERIOD     13
 UBDSV06 SAVING              CHD IN MODEL 2D_TRANS         PACKAGE 2D_TRANS        CONNECTED TO MODEL 2D_TRANS         PACKAGE TET              ON UNIT   1024 AT TIME STEP      5, STRESS PERIOD     13
 UBDSV06 SAVING              CHD IN MODEL 2D_TRANS         PACKAGE 2D_TRANS        CONNECTED TO MODEL 2D_TRANS         PACKAGE REA              ON UNIT   1024 AT TIME STEP      5, STRESS PERIOD     13
 UBDSV06 SAVING              CHD IN MODEL 2D_TRANS         PACKAGE 2D_TRANS        CONNECTED TO MODEL 2D_TRANS         PACKAGE CANT             ON UNIT   1024 AT TIME STEP      5, STRESS PERIOD     13
 UBDSV06 SAVING              CHD IN MODEL 2D_TRANS         PACKAGE 2D_TRANS        CONNECTED TO MODEL 2D_TRANS         PACKAGE TECH             ON UNIT   1024 AT TIME STEP      5, STRESS PERIOD     13
 UBDSV06 SAVING              CHD IN MODEL 2D_TRANS         PACKAGE 2D_TRANS        CONNECTED TO MODEL 2D_TRANS         PACKAGE BOL              ON UNIT   1024 AT TIME STEP      5, STRESS PERIOD     13

 HEAD WILL BE SAVED ON UNIT 1025 AT END OF TIME STEP    5, STRESS PERIOD   13


  VOLUME BUDGET FOR ENTIRE MODEL AT END OF TIME STEP    5, STRESS PERIOD  13
  ---------------------------------------------------------------------------------------------------

     CUMULATIVE VOLUME      L**3       RATES FOR THIS TIME STEP      L**3/T          PACKAGE NAME    
     ------------------                 ------------------------                     ----------------

           IN:                                      IN:
           ---                                      ---
              STO-SS =     2074920.0568                STO-SS =       3.8654E-03     STORAGE         
              STO-SY =    10365685.0009                STO-SY =       1.2565E-02     STORAGE         
                 WEL =           0.0000                   WEL =           0.0000     WEL             
                 RCH =    89132320.0736                   RCH =           3.2670     RCHA            
                 CHD =      217070.7589                   CHD =       2.5235E-03     SEA             
                 CHD =      401090.2753                   CHD =       3.6664E-03     ETA             
                 CHD =     1568704.8165                   CHD =       1.8065E-02     AGY             
                 CHD =    10806562.6732                   CHD =           0.2507     TET             
                 CHD =    11602494.5108                   CHD =           0.3333     REA             
                 CHD =     5394120.3372                   CHD =           0.1599     CANT            
                 CHD =     5528593.8669                   CHD =           0.1337     TECH            
                 CHD =    14510022.0158                   CHD =           0.4253     BOL             

            TOTAL IN =   151601584.3859              TOTAL IN =           4.6105

          OUT:                                     OUT:
          ----                                     ----
              STO-SS =     2528868.7027                STO-SS =       5.8483E-02     STORAGE         
              STO-SY =    12364510.9810                STO-SY =           0.3084     STORAGE         
                 WEL =    43870841.6593                   WEL =           0.8483     WEL             
                 RCH =           0.0000                   RCH =           0.0000     RCHA            
                 CHD =    11941665.5769                   CHD =           0.4438     SEA             
                 CHD =    10660975.5403                   CHD =           0.4099     ETA             
                 CHD =     9213916.3227                   CHD =           0.3888     AGY             
                 CHD =    28520041.2677                   CHD =           1.0260     TET             
                 CHD =    10809209.7805                   CHD =           0.3769     REA             
                 CHD =     5975277.3262                   CHD =           0.2046     CANT            
                 CHD =    12113182.4630                   CHD =           0.4156     TECH            
                 CHD =     3603152.3277                   CHD =           0.1297     BOL             

           TOTAL OUT =   151601641.9479             TOTAL OUT =           4.6105

            IN - OUT =         -57.5620              IN - OUT =      -9.7114E-06

 PERCENT DISCREPANCY =          -0.00     PERCENT DISCREPANCY =          -0.00




         TIME SUMMARY AT END OF TIME STEP    5 IN STRESS PERIOD   13
                    SECONDS     MINUTES      HOURS       DAYS        YEARS
                    -----------------------------------------------------------
   TIME STEP LENGTH 5.18400E+05  8640.0      144.00      6.0000     1.64271E-02
 STRESS PERIOD TIME 2.59200E+06  43200.      720.00      30.000     8.21355E-02
         TOTAL TIME 3.11040E+07 5.18400E+05  8640.0      360.00     0.98563    

 OUTPUT CONTROL FOR STRESS PERIOD 14 IS REPEATED USING SETTINGS FROM A PREVIOUS STRESS PERIOD.


 STRESS PERIOD 14 IS TRANSIENT


 REUSING CHDS FROM LAST STRESS PERIOD

 REUSING CHDS FROM LAST STRESS PERIOD

 REUSING CHDS FROM LAST STRESS PERIOD

 REUSING CHDS FROM LAST STRESS PERIOD

 REUSING CHDS FROM LAST STRESS PERIOD

 REUSING CHDS FROM LAST STRESS PERIOD

 REUSING CHDS FROM LAST STRESS PERIOD

 REUSING CHDS FROM LAST STRESS PERIOD
 UBDSV1 SAVING     FLOW-JA-FACE ON UNIT   1024 AT TIME STEP      5, STRESS PERIOD     14
 UBDSV06 SAVING       DATA-SPDIS IN MODEL 2D_TRANS         PACKAGE NPF             CONNECTED TO MODEL 2D_TRANS         PACKAGE NPF              ON UNIT   1024 AT TIME STEP      5, STRESS PERIOD     14
 UBDSV06 SAVING              CHD IN MODEL 2D_TRANS         PACKAGE 2D_TRANS        CONNECTED TO MODEL 2D_TRANS         PACKAGE SEA              ON UNIT   1024 AT TIME STEP      5, STRESS PERIOD     14
 UBDSV06 SAVING              CHD IN MODEL 2D_TRANS         PACKAGE 2D_TRANS        CONNECTED TO MODEL 2D_TRANS         PACKAGE ETA              ON UNIT   1024 AT TIME STEP      5, STRESS PERIOD     14
 UBDSV06 SAVING              CHD IN MODEL 2D_TRANS         PACKAGE 2D_TRANS        CONNECTED TO MODEL 2D_TRANS         PACKAGE AGY              ON UNIT   1024 AT TIME STEP      5, STRESS PERIOD     14
 UBDSV06 SAVING              CHD IN MODEL 2D_TRANS         PACKAGE 2D_TRANS        CONNECTED TO MODEL 2D_TRANS         PACKAGE TET              ON UNIT   1024 AT TIME STEP      5, STRESS PERIOD     14
 UBDSV06 SAVING              CHD IN MODEL 2D_TRANS         PACKAGE 2D_TRANS        CONNECTED TO MODEL 2D_TRANS         PACKAGE REA              ON UNIT   1024 AT TIME STEP      5, STRESS PERIOD     14
 UBDSV06 SAVING              CHD IN MODEL 2D_TRANS         PACKAGE 2D_TRANS        CONNECTED TO MODEL 2D_TRANS         PACKAGE CANT             ON UNIT   1024 AT TIME STEP      5, STRESS PERIOD     14
 UBDSV06 SAVING              CHD IN MODEL 2D_TRANS         PACKAGE 2D_TRANS        CONNECTED TO MODEL 2D_TRANS         PACKAGE TECH             ON UNIT   1024 AT TIME STEP      5, STRESS PERIOD     14
 UBDSV06 SAVING              CHD IN MODEL 2D_TRANS         PACKAGE 2D_TRANS        CONNECTED TO MODEL 2D_TRANS         PACKAGE BOL              ON UNIT   1024 AT TIME STEP      5, STRESS PERIOD     14

 HEAD WILL BE SAVED ON UNIT 1025 AT END OF TIME STEP    5, STRESS PERIOD   14


  VOLUME BUDGET FOR ENTIRE MODEL AT END OF TIME STEP    5, STRESS PERIOD  14
  ---------------------------------------------------------------------------------------------------

     CUMULATIVE VOLUME      L**3       RATES FOR THIS TIME STEP      L**3/T          PACKAGE NAME    
     ------------------                 ------------------------                     ----------------

           IN:                                      IN:
           ---                                      ---
              STO-SS =     2110764.1914                STO-SS =       7.4308E-03     STORAGE         
              STO-SY =    10473326.9522                STO-SY =       2.5485E-02     STORAGE         
                 WEL =           0.0000                   WEL =           0.0000     WEL             
                 RCH =    96915442.4281                   RCH =           3.0027     RCHA            
                 CHD =      224084.9987                   CHD =       2.7132E-03     SEA             
                 CHD =      410829.3435                   CHD =       3.7610E-03     ETA             
                 CHD =     1618729.5091                   CHD =       1.9824E-02     AGY             
                 CHD =    11468927.6773                   CHD =           0.2568     TET             
                 CHD =    12467622.6928                   CHD =           0.3333     REA             
                 CHD =     5811888.5729                   CHD =           0.1615     CANT            
                 CHD =     5872280.6666                   CHD =           0.1314     TECH            
                 CHD =    15618220.2137                   CHD =           0.4281     BOL             

            TOTAL IN =   162992117.2462              TOTAL IN =           4.3731

          OUT:                                     OUT:
          ----                                     ----
              STO-SS =     2611744.6641                STO-SS =       3.0479E-02     STORAGE         
              STO-SY =    12796161.4054                STO-SY =           0.1574     STORAGE         
                 WEL =    46069545.2134                   WEL =           0.8483     WEL             
                 RCH =           0.0000                   RCH =           0.0000     RCHA            
                 CHD =    13061482.0360                   CHD =           0.4295     SEA             
                 CHD =    11689149.0303                   CHD =           0.3936     ETA             
                 CHD =    10194851.6401                   CHD =           0.3748     AGY             
                 CHD =    31164323.2156                   CHD =           1.0199     TET             
                 CHD =    11783456.1596                   CHD =           0.3760     REA             
                 CHD =     6501653.3142                   CHD =           0.2026     CANT            
                 CHD =    13183949.6521                   CHD =           0.4127     TECH            
                 CHD =     3935379.0118                   CHD =           0.1279     BOL             

           TOTAL OUT =   162991695.3428             TOTAL OUT =           4.3731

            IN - OUT =         421.9034              IN - OUT =       1.2376E-05

 PERCENT DISCREPANCY =           0.00     PERCENT DISCREPANCY =           0.00




         TIME SUMMARY AT END OF TIME STEP    5 IN STRESS PERIOD   14
                    SECONDS     MINUTES      HOURS       DAYS        YEARS
                    -----------------------------------------------------------
   TIME STEP LENGTH 5.18400E+05  8640.0      144.00      6.0000     1.64271E-02
 STRESS PERIOD TIME 2.59200E+06  43200.      720.00      30.000     8.21355E-02
         TOTAL TIME 3.36960E+07 5.61600E+05  9360.0      390.00      1.0678    

 OUTPUT CONTROL FOR STRESS PERIOD 15 IS REPEATED USING SETTINGS FROM A PREVIOUS STRESS PERIOD.


 STRESS PERIOD 15 IS TRANSIENT


 REUSING CHDS FROM LAST STRESS PERIOD

 REUSING CHDS FROM LAST STRESS PERIOD

 REUSING CHDS FROM LAST STRESS PERIOD

 REUSING CHDS FROM LAST STRESS PERIOD

 REUSING CHDS FROM LAST STRESS PERIOD

 REUSING CHDS FROM LAST STRESS PERIOD

 REUSING CHDS FROM LAST STRESS PERIOD

 REUSING CHDS FROM LAST STRESS PERIOD
 UBDSV1 SAVING     FLOW-JA-FACE ON UNIT   1024 AT TIME STEP      5, STRESS PERIOD     15
 UBDSV06 SAVING       DATA-SPDIS IN MODEL 2D_TRANS         PACKAGE NPF             CONNECTED TO MODEL 2D_TRANS         PACKAGE NPF              ON UNIT   1024 AT TIME STEP      5, STRESS PERIOD     15
 UBDSV06 SAVING              CHD IN MODEL 2D_TRANS         PACKAGE 2D_TRANS        CONNECTED TO MODEL 2D_TRANS         PACKAGE SEA              ON UNIT   1024 AT TIME STEP      5, STRESS PERIOD     15
 UBDSV06 SAVING              CHD IN MODEL 2D_TRANS         PACKAGE 2D_TRANS        CONNECTED TO MODEL 2D_TRANS         PACKAGE ETA              ON UNIT   1024 AT TIME STEP      5, STRESS PERIOD     15
 UBDSV06 SAVING              CHD IN MODEL 2D_TRANS         PACKAGE 2D_TRANS        CONNECTED TO MODEL 2D_TRANS         PACKAGE AGY              ON UNIT   1024 AT TIME STEP      5, STRESS PERIOD     15
 UBDSV06 SAVING              CHD IN MODEL 2D_TRANS         PACKAGE 2D_TRANS        CONNECTED TO MODEL 2D_TRANS         PACKAGE TET              ON UNIT   1024 AT TIME STEP      5, STRESS PERIOD     15
 UBDSV06 SAVING              CHD IN MODEL 2D_TRANS         PACKAGE 2D_TRANS        CONNECTED TO MODEL 2D_TRANS         PACKAGE REA              ON UNIT   1024 AT TIME STEP      5, STRESS PERIOD     15
 UBDSV06 SAVING              CHD IN MODEL 2D_TRANS         PACKAGE 2D_TRANS        CONNECTED TO MODEL 2D_TRANS         PACKAGE CANT             ON UNIT   1024 AT TIME STEP      5, STRESS PERIOD     15
 UBDSV06 SAVING              CHD IN MODEL 2D_TRANS         PACKAGE 2D_TRANS        CONNECTED TO MODEL 2D_TRANS         PACKAGE TECH             ON UNIT   1024 AT TIME STEP      5, STRESS PERIOD     15
 UBDSV06 SAVING              CHD IN MODEL 2D_TRANS         PACKAGE 2D_TRANS        CONNECTED TO MODEL 2D_TRANS         PACKAGE BOL              ON UNIT   1024 AT TIME STEP      5, STRESS PERIOD     15

 HEAD WILL BE SAVED ON UNIT 1025 AT END OF TIME STEP    5, STRESS PERIOD   15


  VOLUME BUDGET FOR ENTIRE MODEL AT END OF TIME STEP    5, STRESS PERIOD  15
  ---------------------------------------------------------------------------------------------------

     CUMULATIVE VOLUME      L**3       RATES FOR THIS TIME STEP      L**3/T          PACKAGE NAME    
     ------------------                 ------------------------                     ----------------

           IN:                                      IN:
           ---                                      ---
              STO-SS =     2198110.7267                STO-SS =       2.1989E-02     STORAGE         
              STO-SY =    10817431.3334                STO-SY =       9.8281E-02     STORAGE         
                 WEL =           0.0000                   WEL =           0.0000     WEL             
                 RCH =   103920252.5469                   RCH =           2.7025     RCHA            
                 CHD =      233059.0318                   CHD =       3.4973E-03     SEA             
                 CHD =      422262.3756                   CHD =       4.4330E-03     ETA             
                 CHD =     1678591.1787                   CHD =       2.4497E-02     AGY             
                 CHD =    12165340.1214                   CHD =           0.2726     TET             
                 CHD =    13342474.6742                   CHD =           0.3390     REA             
                 CHD =     6237522.6937                   CHD =           0.1650     CANT            
                 CHD =     6221165.5955                   CHD =           0.1357     TECH            
                 CHD =    16742677.3229                   CHD =           0.4359     BOL             

            TOTAL IN =   173978887.6007              TOTAL IN =           4.2034

          OUT:                                     OUT:
          ----                                     ----
              STO-SS =     2629121.3924                STO-SS =       5.7188E-03     STORAGE         
              STO-SY =    12890479.2966                STO-SY =       3.0647E-02     STORAGE         
                 WEL =    48521800.2551                   WEL =           0.9461     WEL             
                 RCH =           0.0000                   RCH =           0.0000     RCHA            
                 CHD =    14132669.6675                   CHD =           0.4089     SEA             
                 CHD =    12659620.9252                   CHD =           0.3692     ETA             
                 CHD =    11118773.8444                   CHD =           0.3491     AGY             
                 CHD =    33759884.2966                   CHD =           0.9954     TET             
                 CHD =    12746382.9086                   CHD =           0.3699     REA             
                 CHD =     7019931.7923                   CHD =           0.1990     CANT            
                 CHD =    14240562.0556                   CHD =           0.4058     TECH            
                 CHD =     4259335.7338                   CHD =           0.1239     BOL             

           TOTAL OUT =   173978562.1680             TOTAL OUT =           4.2036

            IN - OUT =         325.4327              IN - OUT =      -2.9165E-04

 PERCENT DISCREPANCY =           0.00     PERCENT DISCREPANCY =          -0.01




         TIME SUMMARY AT END OF TIME STEP    5 IN STRESS PERIOD   15
                    SECONDS     MINUTES      HOURS       DAYS        YEARS
                    -----------------------------------------------------------
   TIME STEP LENGTH 5.18400E+05  8640.0      144.00      6.0000     1.64271E-02
 STRESS PERIOD TIME 2.59200E+06  43200.      720.00      30.000     8.21355E-02
         TOTAL TIME 3.62880E+07 6.04800E+05  10080.      420.00      1.1499    

 OUTPUT CONTROL FOR STRESS PERIOD 16 IS REPEATED USING SETTINGS FROM A PREVIOUS STRESS PERIOD.


 STRESS PERIOD 16 IS TRANSIENT


 REUSING CHDS FROM LAST STRESS PERIOD

 REUSING CHDS FROM LAST STRESS PERIOD

 REUSING CHDS FROM LAST STRESS PERIOD

 REUSING CHDS FROM LAST STRESS PERIOD

 REUSING CHDS FROM LAST STRESS PERIOD

 REUSING CHDS FROM LAST STRESS PERIOD

 REUSING CHDS FROM LAST STRESS PERIOD

 REUSING CHDS FROM LAST STRESS PERIOD
 UBDSV1 SAVING     FLOW-JA-FACE ON UNIT   1024 AT TIME STEP      5, STRESS PERIOD     16
 UBDSV06 SAVING       DATA-SPDIS IN MODEL 2D_TRANS         PACKAGE NPF             CONNECTED TO MODEL 2D_TRANS         PACKAGE NPF              ON UNIT   1024 AT TIME STEP      5, STRESS PERIOD     16
 UBDSV06 SAVING              CHD IN MODEL 2D_TRANS         PACKAGE 2D_TRANS        CONNECTED TO MODEL 2D_TRANS         PACKAGE SEA              ON UNIT   1024 AT TIME STEP      5, STRESS PERIOD     16
 UBDSV06 SAVING              CHD IN MODEL 2D_TRANS         PACKAGE 2D_TRANS        CONNECTED TO MODEL 2D_TRANS         PACKAGE ETA              ON UNIT   1024 AT TIME STEP      5, STRESS PERIOD     16
 UBDSV06 SAVING              CHD IN MODEL 2D_TRANS         PACKAGE 2D_TRANS        CONNECTED TO MODEL 2D_TRANS         PACKAGE AGY              ON UNIT   1024 AT TIME STEP      5, STRESS PERIOD     16
 UBDSV06 SAVING              CHD IN MODEL 2D_TRANS         PACKAGE 2D_TRANS        CONNECTED TO MODEL 2D_TRANS         PACKAGE TET              ON UNIT   1024 AT TIME STEP      5, STRESS PERIOD     16
 UBDSV06 SAVING              CHD IN MODEL 2D_TRANS         PACKAGE 2D_TRANS        CONNECTED TO MODEL 2D_TRANS         PACKAGE REA              ON UNIT   1024 AT TIME STEP      5, STRESS PERIOD     16
 UBDSV06 SAVING              CHD IN MODEL 2D_TRANS         PACKAGE 2D_TRANS        CONNECTED TO MODEL 2D_TRANS         PACKAGE CANT             ON UNIT   1024 AT TIME STEP      5, STRESS PERIOD     16
 UBDSV06 SAVING              CHD IN MODEL 2D_TRANS         PACKAGE 2D_TRANS        CONNECTED TO MODEL 2D_TRANS         PACKAGE TECH             ON UNIT   1024 AT TIME STEP      5, STRESS PERIOD     16
 UBDSV06 SAVING              CHD IN MODEL 2D_TRANS         PACKAGE 2D_TRANS        CONNECTED TO MODEL 2D_TRANS         PACKAGE BOL              ON UNIT   1024 AT TIME STEP      5, STRESS PERIOD     16

 HEAD WILL BE SAVED ON UNIT 1025 AT END OF TIME STEP    5, STRESS PERIOD   16


  VOLUME BUDGET FOR ENTIRE MODEL AT END OF TIME STEP    5, STRESS PERIOD  16
  ---------------------------------------------------------------------------------------------------

     CUMULATIVE VOLUME      L**3       RATES FOR THIS TIME STEP      L**3/T          PACKAGE NAME    
     ------------------                 ------------------------                     ----------------

           IN:                                      IN:
           ---                                      ---
              STO-SS =     2262719.4421                STO-SS =       1.9439E-02     STORAGE         
              STO-SY =    11122084.6447                STO-SY =       9.9425E-02     STORAGE         
                 WEL =           0.0000                   WEL =           0.0000     WEL             
                 RCH =   110691568.9939                   RCH =           2.6124     RCHA            
                 CHD =      242312.6370                   CHD =       3.5729E-03     SEA             
                 CHD =      433858.9124                   CHD =       4.4756E-03     ETA             
                 CHD =     1746822.1770                   CHD =       2.7236E-02     AGY             
                 CHD =    12884464.2552                   CHD =           0.2795     TET             
                 CHD =    14226836.2846                   CHD =           0.3422     REA             
                 CHD =     6668024.2605                   CHD =           0.1665     CANT            
                 CHD =     6576286.1263                   CHD =           0.1375     TECH            
                 CHD =    17877751.0323                   CHD =           0.4387     BOL             

            TOTAL IN =   184732728.7659              TOTAL IN =           4.1310

          OUT:                                     OUT:
          ----                                     ----
              STO-SS =     2637710.4404                STO-SS =       3.0472E-03     STORAGE         
              STO-SY =    12936336.6856                STO-SY =       1.6134E-02     STORAGE         
                 WEL =    50974055.2969                   WEL =           0.9461     WEL             
                 RCH =           0.0000                   RCH =           0.0000     RCHA            
                 CHD =    15175349.5396                   CHD =           0.4001     SEA             
                 CHD =    13597263.0350                   CHD =           0.3592     ETA             
                 CHD =    11999699.5834                   CHD =           0.3356     AGY             
                 CHD =    36319420.5732                   CHD =           0.9842     TET             
                 CHD =    13698926.2755                   CHD =           0.3664     REA             
                 CHD =     7532200.3345                   CHD =           0.1970     CANT            
                 CHD =    15284915.4516                   CHD =           0.4016     TECH            
                 CHD =     4576874.6055                   CHD =           0.1219     BOL             

           TOTAL OUT =   184732751.8214             TOTAL OUT =           4.1313

            IN - OUT =         -23.0555              IN - OUT =      -3.2785E-04

 PERCENT DISCREPANCY =          -0.00     PERCENT DISCREPANCY =          -0.01




         TIME SUMMARY AT END OF TIME STEP    5 IN STRESS PERIOD   16
                    SECONDS     MINUTES      HOURS       DAYS        YEARS
                    -----------------------------------------------------------
   TIME STEP LENGTH 5.18400E+05  8640.0      144.00      6.0000     1.64271E-02
 STRESS PERIOD TIME 2.59200E+06  43200.      720.00      30.000     8.21355E-02
         TOTAL TIME 3.88800E+07 6.48000E+05  10800.      450.00      1.2320    

 OUTPUT CONTROL FOR STRESS PERIOD 17 IS REPEATED USING SETTINGS FROM A PREVIOUS STRESS PERIOD.


 STRESS PERIOD 17 IS TRANSIENT


 REUSING CHDS FROM LAST STRESS PERIOD

 REUSING CHDS FROM LAST STRESS PERIOD

 REUSING CHDS FROM LAST STRESS PERIOD

 REUSING CHDS FROM LAST STRESS PERIOD

 REUSING CHDS FROM LAST STRESS PERIOD

 REUSING CHDS FROM LAST STRESS PERIOD

 REUSING CHDS FROM LAST STRESS PERIOD

 REUSING CHDS FROM LAST STRESS PERIOD
 UBDSV1 SAVING     FLOW-JA-FACE ON UNIT   1024 AT TIME STEP      5, STRESS PERIOD     17
 UBDSV06 SAVING       DATA-SPDIS IN MODEL 2D_TRANS         PACKAGE NPF             CONNECTED TO MODEL 2D_TRANS         PACKAGE NPF              ON UNIT   1024 AT TIME STEP      5, STRESS PERIOD     17
 UBDSV06 SAVING              CHD IN MODEL 2D_TRANS         PACKAGE 2D_TRANS        CONNECTED TO MODEL 2D_TRANS         PACKAGE SEA              ON UNIT   1024 AT TIME STEP      5, STRESS PERIOD     17
 UBDSV06 SAVING              CHD IN MODEL 2D_TRANS         PACKAGE 2D_TRANS        CONNECTED TO MODEL 2D_TRANS         PACKAGE ETA              ON UNIT   1024 AT TIME STEP      5, STRESS PERIOD     17
 UBDSV06 SAVING              CHD IN MODEL 2D_TRANS         PACKAGE 2D_TRANS        CONNECTED TO MODEL 2D_TRANS         PACKAGE AGY              ON UNIT   1024 AT TIME STEP      5, STRESS PERIOD     17
 UBDSV06 SAVING              CHD IN MODEL 2D_TRANS         PACKAGE 2D_TRANS        CONNECTED TO MODEL 2D_TRANS         PACKAGE TET              ON UNIT   1024 AT TIME STEP      5, STRESS PERIOD     17
 UBDSV06 SAVING              CHD IN MODEL 2D_TRANS         PACKAGE 2D_TRANS        CONNECTED TO MODEL 2D_TRANS         PACKAGE REA              ON UNIT   1024 AT TIME STEP      5, STRESS PERIOD     17
 UBDSV06 SAVING              CHD IN MODEL 2D_TRANS         PACKAGE 2D_TRANS        CONNECTED TO MODEL 2D_TRANS         PACKAGE CANT             ON UNIT   1024 AT TIME STEP      5, STRESS PERIOD     17
 UBDSV06 SAVING              CHD IN MODEL 2D_TRANS         PACKAGE 2D_TRANS        CONNECTED TO MODEL 2D_TRANS         PACKAGE TECH             ON UNIT   1024 AT TIME STEP      5, STRESS PERIOD     17
 UBDSV06 SAVING              CHD IN MODEL 2D_TRANS         PACKAGE 2D_TRANS        CONNECTED TO MODEL 2D_TRANS         PACKAGE BOL              ON UNIT   1024 AT TIME STEP      5, STRESS PERIOD     17

 HEAD WILL BE SAVED ON UNIT 1025 AT END OF TIME STEP    5, STRESS PERIOD   17


  VOLUME BUDGET FOR ENTIRE MODEL AT END OF TIME STEP    5, STRESS PERIOD  17
  ---------------------------------------------------------------------------------------------------

     CUMULATIVE VOLUME      L**3       RATES FOR THIS TIME STEP      L**3/T          PACKAGE NAME    
     ------------------                 ------------------------                     ----------------

           IN:                                      IN:
           ---                                      ---
              STO-SS =     2293221.9323                STO-SS =       6.0718E-03     STORAGE         
              STO-SY =    11270863.0289                STO-SY =       2.8242E-02     STORAGE         
                 WEL =           0.0000                   WEL =           0.0000     WEL             
                 RCH =   119408666.0308                   RCH =           3.3631     RCHA            
                 CHD =      254755.7442                   CHD =       4.8640E-03     SEA             
                 CHD =      449358.2339                   CHD =       6.0238E-03     ETA             
                 CHD =     1814711.5436                   CHD =       2.6020E-02     AGY             
                 CHD =    13613854.2665                   CHD =           0.2816     TET             
                 CHD =    15105300.5058                   CHD =           0.3379     REA             
                 CHD =     7094149.8134                   CHD =           0.1630     CANT            
                 CHD =     6938391.5637                   CHD =           0.1416     TECH            
                 CHD =    19019521.5224                   CHD =           0.4422     BOL             

            TOTAL IN =   197262794.1855              TOTAL IN =           4.8006

          OUT:                                     OUT:
          ----                                     ----
              STO-SS =     2783039.6197                STO-SS =       4.2186E-02     STORAGE         
              STO-SY =    13618513.9850                STO-SY =           0.2234     STORAGE         
                 WEL =    54243477.7597                   WEL =           1.2614     WEL             
                 RCH =           0.0000                   RCH =           0.0000     RCHA            
                 CHD =    16277622.3832                   CHD =           0.4294     SEA             
                 CHD =    14588946.9400                   CHD =           0.3864     ETA             
                 CHD =    12896655.5030                   CHD =           0.3496     AGY             
                 CHD =    38896192.1237                   CHD =           0.9972     TET             
                 CHD =    14660650.9999                   CHD =           0.3723     REA             
                 CHD =     8050546.3805                   CHD =           0.2014     CANT            
                 CHD =    16345547.0805                   CHD =           0.4115     TECH            
                 CHD =     4901624.8214                   CHD =           0.1260     BOL             

           TOTAL OUT =   197262817.5966             TOTAL OUT =           4.8006

            IN - OUT =         -23.4111              IN - OUT =       8.3225E-06

 PERCENT DISCREPANCY =          -0.00     PERCENT DISCREPANCY =           0.00




         TIME SUMMARY AT END OF TIME STEP    5 IN STRESS PERIOD   17
                    SECONDS     MINUTES      HOURS       DAYS        YEARS
                    -----------------------------------------------------------
   TIME STEP LENGTH 5.18400E+05  8640.0      144.00      6.0000     1.64271E-02
 STRESS PERIOD TIME 2.59200E+06  43200.      720.00      30.000     8.21355E-02
         TOTAL TIME 4.14720E+07 6.91200E+05  11520.      480.00      1.3142    

 OUTPUT CONTROL FOR STRESS PERIOD 18 IS REPEATED USING SETTINGS FROM A PREVIOUS STRESS PERIOD.


 STRESS PERIOD 18 IS TRANSIENT


 REUSING CHDS FROM LAST STRESS PERIOD

 REUSING CHDS FROM LAST STRESS PERIOD

 REUSING CHDS FROM LAST STRESS PERIOD

 REUSING CHDS FROM LAST STRESS PERIOD

 REUSING CHDS FROM LAST STRESS PERIOD

 REUSING CHDS FROM LAST STRESS PERIOD

 REUSING CHDS FROM LAST STRESS PERIOD

 REUSING CHDS FROM LAST STRESS PERIOD
 UBDSV1 SAVING     FLOW-JA-FACE ON UNIT   1024 AT TIME STEP      5, STRESS PERIOD     18
 UBDSV06 SAVING       DATA-SPDIS IN MODEL 2D_TRANS         PACKAGE NPF             CONNECTED TO MODEL 2D_TRANS         PACKAGE NPF              ON UNIT   1024 AT TIME STEP      5, STRESS PERIOD     18
 UBDSV06 SAVING              CHD IN MODEL 2D_TRANS         PACKAGE 2D_TRANS        CONNECTED TO MODEL 2D_TRANS         PACKAGE SEA              ON UNIT   1024 AT TIME STEP      5, STRESS PERIOD     18
 UBDSV06 SAVING              CHD IN MODEL 2D_TRANS         PACKAGE 2D_TRANS        CONNECTED TO MODEL 2D_TRANS         PACKAGE ETA              ON UNIT   1024 AT TIME STEP      5, STRESS PERIOD     18
 UBDSV06 SAVING              CHD IN MODEL 2D_TRANS         PACKAGE 2D_TRANS        CONNECTED TO MODEL 2D_TRANS         PACKAGE AGY              ON UNIT   1024 AT TIME STEP      5, STRESS PERIOD     18
 UBDSV06 SAVING              CHD IN MODEL 2D_TRANS         PACKAGE 2D_TRANS        CONNECTED TO MODEL 2D_TRANS         PACKAGE TET              ON UNIT   1024 AT TIME STEP      5, STRESS PERIOD     18
 UBDSV06 SAVING              CHD IN MODEL 2D_TRANS         PACKAGE 2D_TRANS        CONNECTED TO MODEL 2D_TRANS         PACKAGE REA              ON UNIT   1024 AT TIME STEP      5, STRESS PERIOD     18
 UBDSV06 SAVING              CHD IN MODEL 2D_TRANS         PACKAGE 2D_TRANS        CONNECTED TO MODEL 2D_TRANS         PACKAGE CANT             ON UNIT   1024 AT TIME STEP      5, STRESS PERIOD     18
 UBDSV06 SAVING              CHD IN MODEL 2D_TRANS         PACKAGE 2D_TRANS        CONNECTED TO MODEL 2D_TRANS         PACKAGE TECH             ON UNIT   1024 AT TIME STEP      5, STRESS PERIOD     18
 UBDSV06 SAVING              CHD IN MODEL 2D_TRANS         PACKAGE 2D_TRANS        CONNECTED TO MODEL 2D_TRANS         PACKAGE BOL              ON UNIT   1024 AT TIME STEP      5, STRESS PERIOD     18

 HEAD WILL BE SAVED ON UNIT 1025 AT END OF TIME STEP    5, STRESS PERIOD   18


  VOLUME BUDGET FOR ENTIRE MODEL AT END OF TIME STEP    5, STRESS PERIOD  18
  ---------------------------------------------------------------------------------------------------

     CUMULATIVE VOLUME      L**3       RATES FOR THIS TIME STEP      L**3/T          PACKAGE NAME    
     ------------------                 ------------------------                     ----------------

           IN:                                      IN:
           ---                                      ---
              STO-SS =     2421532.2094                STO-SS =       3.4617E-02     STORAGE         
              STO-SY =    11777513.0846                STO-SY =           0.1456     STORAGE         
                 WEL =           0.0000                   WEL =           0.0000     WEL             
                 RCH =   127191788.3853                   RCH =           3.0027     RCHA            
                 CHD =      271787.6000                   CHD =       6.6499E-03     SEA             
                 CHD =      470435.8582                   CHD =       8.4335E-03     ETA             
                 CHD =     1896585.1887                   CHD =       3.3773E-02     AGY             
                 CHD =    14403667.9062                   CHD =           0.3117     TET             
                 CHD =    16002468.8504                   CHD =           0.3495     REA             
                 CHD =     7524313.7250                   CHD =           0.1664     CANT            
                 CHD =     7333120.9427                   CHD =           0.1573     TECH            
                 CHD =    20194080.9427                   CHD =           0.4575     BOL             

            TOTAL IN =   209487294.6932              TOTAL IN =           4.6741

          OUT:                                     OUT:
          ----                                     ----
              STO-SS =     2798013.2511                STO-SS =       4.5765E-03     STORAGE         
              STO-SY =    13712336.0189                STO-SY =       2.8977E-02     STORAGE         
                 WEL =    58144330.2252                   WEL =           1.5050     WEL             
                 RCH =           0.0000                   RCH =           0.0000     RCHA            
                 CHD =    17340374.6485                   CHD =           0.4044     SEA             
                 CHD =    15533079.4137                   CHD =           0.3586     ETA             
                 CHD =    13752759.9891                   CHD =           0.3232     AGY             
                 CHD =    41411404.6280                   CHD =           0.9608     TET             
                 CHD =    15609088.0079                   CHD =           0.3633     REA             
                 CHD =     8566829.4698                   CHD =           0.1987     CANT            
                 CHD =    17399814.6402                   CHD =           0.4053     TECH            
                 CHD =     5219174.9035                   CHD =           0.1213     BOL             

           TOTAL OUT =   209487205.1958             TOTAL OUT =           4.6741

            IN - OUT =          89.4974              IN - OUT =       2.9534E-05

 PERCENT DISCREPANCY =           0.00     PERCENT DISCREPANCY =           0.00




         TIME SUMMARY AT END OF TIME STEP    5 IN STRESS PERIOD   18
                    SECONDS     MINUTES      HOURS       DAYS        YEARS
                    -----------------------------------------------------------
   TIME STEP LENGTH 5.18400E+05  8640.0      144.00      6.0000     1.64271E-02
 STRESS PERIOD TIME 2.59200E+06  43200.      720.00      30.000     8.21355E-02
         TOTAL TIME 4.40640E+07 7.34400E+05  12240.      510.00      1.3963    

 OUTPUT CONTROL FOR STRESS PERIOD 19 IS REPEATED USING SETTINGS FROM A PREVIOUS STRESS PERIOD.


 STRESS PERIOD 19 IS TRANSIENT


 REUSING CHDS FROM LAST STRESS PERIOD

 REUSING CHDS FROM LAST STRESS PERIOD

 REUSING CHDS FROM LAST STRESS PERIOD

 REUSING CHDS FROM LAST STRESS PERIOD

 REUSING CHDS FROM LAST STRESS PERIOD

 REUSING CHDS FROM LAST STRESS PERIOD

 REUSING CHDS FROM LAST STRESS PERIOD

 REUSING CHDS FROM LAST STRESS PERIOD
 UBDSV1 SAVING     FLOW-JA-FACE ON UNIT   1024 AT TIME STEP      5, STRESS PERIOD     19
 UBDSV06 SAVING       DATA-SPDIS IN MODEL 2D_TRANS         PACKAGE NPF             CONNECTED TO MODEL 2D_TRANS         PACKAGE NPF              ON UNIT   1024 AT TIME STEP      5, STRESS PERIOD     19
 UBDSV06 SAVING              CHD IN MODEL 2D_TRANS         PACKAGE 2D_TRANS        CONNECTED TO MODEL 2D_TRANS         PACKAGE SEA              ON UNIT   1024 AT TIME STEP      5, STRESS PERIOD     19
 UBDSV06 SAVING              CHD IN MODEL 2D_TRANS         PACKAGE 2D_TRANS        CONNECTED TO MODEL 2D_TRANS         PACKAGE ETA              ON UNIT   1024 AT TIME STEP      5, STRESS PERIOD     19
 UBDSV06 SAVING              CHD IN MODEL 2D_TRANS         PACKAGE 2D_TRANS        CONNECTED TO MODEL 2D_TRANS         PACKAGE AGY              ON UNIT   1024 AT TIME STEP      5, STRESS PERIOD     19
 UBDSV06 SAVING              CHD IN MODEL 2D_TRANS         PACKAGE 2D_TRANS        CONNECTED TO MODEL 2D_TRANS         PACKAGE TET              ON UNIT   1024 AT TIME STEP      5, STRESS PERIOD     19
 UBDSV06 SAVING              CHD IN MODEL 2D_TRANS         PACKAGE 2D_TRANS        CONNECTED TO MODEL 2D_TRANS         PACKAGE REA              ON UNIT   1024 AT TIME STEP      5, STRESS PERIOD     19
 UBDSV06 SAVING              CHD IN MODEL 2D_TRANS         PACKAGE 2D_TRANS        CONNECTED TO MODEL 2D_TRANS         PACKAGE CANT             ON UNIT   1024 AT TIME STEP      5, STRESS PERIOD     19
 UBDSV06 SAVING              CHD IN MODEL 2D_TRANS         PACKAGE 2D_TRANS        CONNECTED TO MODEL 2D_TRANS         PACKAGE TECH             ON UNIT   1024 AT TIME STEP      5, STRESS PERIOD     19
 UBDSV06 SAVING              CHD IN MODEL 2D_TRANS         PACKAGE 2D_TRANS        CONNECTED TO MODEL 2D_TRANS         PACKAGE BOL              ON UNIT   1024 AT TIME STEP      5, STRESS PERIOD     19

 HEAD WILL BE SAVED ON UNIT 1025 AT END OF TIME STEP    5, STRESS PERIOD   19


  VOLUME BUDGET FOR ENTIRE MODEL AT END OF TIME STEP    5, STRESS PERIOD  19
  ---------------------------------------------------------------------------------------------------

     CUMULATIVE VOLUME      L**3       RATES FOR THIS TIME STEP      L**3/T          PACKAGE NAME    
     ------------------                 ------------------------                     ----------------

           IN:                                      IN:
           ---                                      ---
              STO-SS =     3119160.4932                STO-SS =           0.2120     STORAGE         
              STO-SY =    15084171.5918                STO-SY =           1.0980     STORAGE         
                 WEL =           0.0000                   WEL =           0.0000     WEL             
                 RCH =   131597035.6391                   RCH =           1.6996     RCHA            
                 CHD =      307271.1184                   CHD =       1.4149E-02     SEA             
                 CHD =      525711.1330                   CHD =       2.4578E-02     ETA             
                 CHD =     2063323.9872                   CHD =       7.7830E-02     AGY             
                 CHD =    15461755.2423                   CHD =           0.4421     TET             
                 CHD =    16998530.0393                   CHD =           0.3995     REA             
                 CHD =     7994195.6556                   CHD =           0.1857     CANT            
                 CHD =     7832574.4774                   CHD =           0.2096     TECH            
                 CHD =    21477371.8604                   CHD =           0.5111     BOL             

            TOTAL IN =   222461101.2378              TOTAL IN =           4.8740

          OUT:                                     OUT:
          ----                                     ----
              STO-SS =     2798013.2511                STO-SS =           0.0000     STORAGE         
              STO-SY =    13712336.0189                STO-SY =           0.0000     STORAGE         
                 WEL =    63995232.3005                   WEL =           2.2573     WEL             
                 RCH =           0.0000                   RCH =           0.0000     RCHA            
                 CHD =    18199640.2133                   CHD =           0.3098     SEA             
                 CHD =    16261867.5184                   CHD =           0.2608     ETA             
                 CHD =    14408455.4081                   CHD =           0.2264     AGY             
                 CHD =    43660427.0760                   CHD =           0.8327     TET             
                 CHD =    16486591.4753                   CHD =           0.3284     REA             
                 CHD =     9051295.6869                   CHD =           0.1827     CANT            
                 CHD =    18387069.6410                   CHD =           0.3716     TECH            
                 CHD =     5500010.6331                   CHD =           0.1042     BOL             

           TOTAL OUT =   222460939.2225             TOTAL OUT =           4.8739

            IN - OUT =         162.0153              IN - OUT =       6.0640E-05

 PERCENT DISCREPANCY =           0.00     PERCENT DISCREPANCY =           0.00




         TIME SUMMARY AT END OF TIME STEP    5 IN STRESS PERIOD   19
                    SECONDS     MINUTES      HOURS       DAYS        YEARS
                    -----------------------------------------------------------
   TIME STEP LENGTH 5.18400E+05  8640.0      144.00      6.0000     1.64271E-02
 STRESS PERIOD TIME 2.59200E+06  43200.      720.00      30.000     8.21355E-02
         TOTAL TIME 4.66560E+07 7.77600E+05  12960.      540.00      1.4784    

 OUTPUT CONTROL FOR STRESS PERIOD 20 IS REPEATED USING SETTINGS FROM A PREVIOUS STRESS PERIOD.


 STRESS PERIOD 20 IS TRANSIENT


 REUSING CHDS FROM LAST STRESS PERIOD

 REUSING CHDS FROM LAST STRESS PERIOD

 REUSING CHDS FROM LAST STRESS PERIOD

 REUSING CHDS FROM LAST STRESS PERIOD

 REUSING CHDS FROM LAST STRESS PERIOD

 REUSING CHDS FROM LAST STRESS PERIOD

 REUSING CHDS FROM LAST STRESS PERIOD

 REUSING CHDS FROM LAST STRESS PERIOD
 UBDSV1 SAVING     FLOW-JA-FACE ON UNIT   1024 AT TIME STEP      5, STRESS PERIOD     20
 UBDSV06 SAVING       DATA-SPDIS IN MODEL 2D_TRANS         PACKAGE NPF             CONNECTED TO MODEL 2D_TRANS         PACKAGE NPF              ON UNIT   1024 AT TIME STEP      5, STRESS PERIOD     20
 UBDSV06 SAVING              CHD IN MODEL 2D_TRANS         PACKAGE 2D_TRANS        CONNECTED TO MODEL 2D_TRANS         PACKAGE SEA              ON UNIT   1024 AT TIME STEP      5, STRESS PERIOD     20
 UBDSV06 SAVING              CHD IN MODEL 2D_TRANS         PACKAGE 2D_TRANS        CONNECTED TO MODEL 2D_TRANS         PACKAGE ETA              ON UNIT   1024 AT TIME STEP      5, STRESS PERIOD     20
 UBDSV06 SAVING              CHD IN MODEL 2D_TRANS         PACKAGE 2D_TRANS        CONNECTED TO MODEL 2D_TRANS         PACKAGE AGY              ON UNIT   1024 AT TIME STEP      5, STRESS PERIOD     20
 UBDSV06 SAVING              CHD IN MODEL 2D_TRANS         PACKAGE 2D_TRANS        CONNECTED TO MODEL 2D_TRANS         PACKAGE TET              ON UNIT   1024 AT TIME STEP      5, STRESS PERIOD     20
 UBDSV06 SAVING              CHD IN MODEL 2D_TRANS         PACKAGE 2D_TRANS        CONNECTED TO MODEL 2D_TRANS         PACKAGE REA              ON UNIT   1024 AT TIME STEP      5, STRESS PERIOD     20
 UBDSV06 SAVING              CHD IN MODEL 2D_TRANS         PACKAGE 2D_TRANS        CONNECTED TO MODEL 2D_TRANS         PACKAGE CANT             ON UNIT   1024 AT TIME STEP      5, STRESS PERIOD     20
 UBDSV06 SAVING              CHD IN MODEL 2D_TRANS         PACKAGE 2D_TRANS        CONNECTED TO MODEL 2D_TRANS         PACKAGE TECH             ON UNIT   1024 AT TIME STEP      5, STRESS PERIOD     20
 UBDSV06 SAVING              CHD IN MODEL 2D_TRANS         PACKAGE 2D_TRANS        CONNECTED TO MODEL 2D_TRANS         PACKAGE BOL              ON UNIT   1024 AT TIME STEP      5, STRESS PERIOD     20

 HEAD WILL BE SAVED ON UNIT 1025 AT END OF TIME STEP    5, STRESS PERIOD   20


  VOLUME BUDGET FOR ENTIRE MODEL AT END OF TIME STEP    5, STRESS PERIOD  20
  ---------------------------------------------------------------------------------------------------

     CUMULATIVE VOLUME      L**3       RATES FOR THIS TIME STEP      L**3/T          PACKAGE NAME    
     ------------------                 ------------------------                     ----------------

           IN:                                      IN:
           ---                                      ---
              STO-SS =     3904402.1698                STO-SS =           0.2585     STORAGE         
              STO-SY =    19251797.7116                STO-SY =           1.4337     STORAGE         
                 WEL =           0.0000                   WEL =           0.0000     WEL             
                 RCH =   134258863.4846                   RCH =           1.0269     RCHA            
                 CHD =      357343.0825                   CHD =       1.9968E-02     SEA             
                 CHD =      627174.8363                   CHD =       4.4146E-02     ETA             
                 CHD =     2367359.2936                   CHD =           0.1361     AGY             
                 CHD =    16834817.5941                   CHD =           0.5645     TET             
                 CHD =    18119728.8123                   CHD =           0.4486     REA             
                 CHD =     8507052.8465                   CHD =           0.2026     CANT            
                 CHD =     8466332.9433                   CHD =           0.2617     TECH            
                 CHD =    22884067.5160                   CHD =           0.5562     BOL             

            TOTAL IN =   235578940.2906              TOTAL IN =           4.9530

          OUT:                                     OUT:
          ----                                     ----
              STO-SS =     2798013.2511                STO-SS =           0.0000     STORAGE         
              STO-SY =    13712336.0189                STO-SY =           0.0000     STORAGE         
                 WEL =    71025356.7632                   WEL =           2.7122     WEL             
                 RCH =           0.0000                   RCH =           0.0000     RCHA            
                 CHD =    18871659.0613                   CHD =           0.2414     SEA             
                 CHD =    16818215.1791                   CHD =           0.2004     ETA             
                 CHD =    14877087.9794                   CHD =           0.1618     AGY             
                 CHD =    45638027.3780                   CHD =           0.7316     TET             
                 CHD =    17288846.5925                   CHD =           0.3007     REA             
                 CHD =     9499197.7107                   CHD =           0.1686     CANT            
                 CHD =    19301548.4869                   CHD =           0.3440     TECH            
                 CHD =     5748358.2787                   CHD =       9.2146E-02     BOL             

           TOTAL OUT =   235578646.6998             TOTAL OUT =           4.9529

            IN - OUT =         293.5907              IN - OUT =       1.8355E-04

 PERCENT DISCREPANCY =           0.00     PERCENT DISCREPANCY =           0.00




         TIME SUMMARY AT END OF TIME STEP    5 IN STRESS PERIOD   20
                    SECONDS     MINUTES      HOURS       DAYS        YEARS
                    -----------------------------------------------------------
   TIME STEP LENGTH 5.18400E+05  8640.0      144.00      6.0000     1.64271E-02
 STRESS PERIOD TIME 2.59200E+06  43200.      720.00      30.000     8.21355E-02
         TOTAL TIME 4.92480E+07 8.20800E+05  13680.      570.00      1.5606    

 OUTPUT CONTROL FOR STRESS PERIOD 21 IS REPEATED USING SETTINGS FROM A PREVIOUS STRESS PERIOD.


 STRESS PERIOD 21 IS TRANSIENT


 REUSING CHDS FROM LAST STRESS PERIOD

 REUSING CHDS FROM LAST STRESS PERIOD

 REUSING CHDS FROM LAST STRESS PERIOD

 REUSING CHDS FROM LAST STRESS PERIOD

 REUSING CHDS FROM LAST STRESS PERIOD

 REUSING CHDS FROM LAST STRESS PERIOD

 REUSING CHDS FROM LAST STRESS PERIOD

 REUSING CHDS FROM LAST STRESS PERIOD
 UBDSV1 SAVING     FLOW-JA-FACE ON UNIT   1024 AT TIME STEP      5, STRESS PERIOD     21
 UBDSV06 SAVING       DATA-SPDIS IN MODEL 2D_TRANS         PACKAGE NPF             CONNECTED TO MODEL 2D_TRANS         PACKAGE NPF              ON UNIT   1024 AT TIME STEP      5, STRESS PERIOD     21
 UBDSV06 SAVING              CHD IN MODEL 2D_TRANS         PACKAGE 2D_TRANS        CONNECTED TO MODEL 2D_TRANS         PACKAGE SEA              ON UNIT   1024 AT TIME STEP      5, STRESS PERIOD     21
 UBDSV06 SAVING              CHD IN MODEL 2D_TRANS         PACKAGE 2D_TRANS        CONNECTED TO MODEL 2D_TRANS         PACKAGE ETA              ON UNIT   1024 AT TIME STEP      5, STRESS PERIOD     21
 UBDSV06 SAVING              CHD IN MODEL 2D_TRANS         PACKAGE 2D_TRANS        CONNECTED TO MODEL 2D_TRANS         PACKAGE AGY              ON UNIT   1024 AT TIME STEP      5, STRESS PERIOD     21
 UBDSV06 SAVING              CHD IN MODEL 2D_TRANS         PACKAGE 2D_TRANS        CONNECTED TO MODEL 2D_TRANS         PACKAGE TET              ON UNIT   1024 AT TIME STEP      5, STRESS PERIOD     21
 UBDSV06 SAVING              CHD IN MODEL 2D_TRANS         PACKAGE 2D_TRANS        CONNECTED TO MODEL 2D_TRANS         PACKAGE REA              ON UNIT   1024 AT TIME STEP      5, STRESS PERIOD     21
 UBDSV06 SAVING              CHD IN MODEL 2D_TRANS         PACKAGE 2D_TRANS        CONNECTED TO MODEL 2D_TRANS         PACKAGE CANT             ON UNIT   1024 AT TIME STEP      5, STRESS PERIOD     21
 UBDSV06 SAVING              CHD IN MODEL 2D_TRANS         PACKAGE 2D_TRANS        CONNECTED TO MODEL 2D_TRANS         PACKAGE TECH             ON UNIT   1024 AT TIME STEP      5, STRESS PERIOD     21
 UBDSV06 SAVING              CHD IN MODEL 2D_TRANS         PACKAGE 2D_TRANS        CONNECTED TO MODEL 2D_TRANS         PACKAGE BOL              ON UNIT   1024 AT TIME STEP      5, STRESS PERIOD     21

 HEAD WILL BE SAVED ON UNIT 1025 AT END OF TIME STEP    5, STRESS PERIOD   21


  VOLUME BUDGET FOR ENTIRE MODEL AT END OF TIME STEP    5, STRESS PERIOD  21
  ---------------------------------------------------------------------------------------------------

     CUMULATIVE VOLUME      L**3       RATES FOR THIS TIME STEP      L**3/T          PACKAGE NAME    
     ------------------                 ------------------------                     ----------------

           IN:                                      IN:
           ---                                      ---
              STO-SS =     4233828.6470                STO-SS =           0.1199     STORAGE         
              STO-SY =    21152673.2192                STO-SY =           0.6897     STORAGE         
                 WEL =           0.0000                   WEL =           0.0000     WEL             
                 RCH =   139240061.7929                   RCH =           1.9218     RCHA            
                 CHD =      403661.5822                   CHD =       1.7750E-02     SEA             
                 CHD =      738953.8057                   CHD =       4.3605E-02     ETA             
                 CHD =     2716075.4692                   CHD =           0.1373     AGY             
                 CHD =    18305935.4265                   CHD =           0.5746     TET             
                 CHD =    19293546.8445                   CHD =           0.4577     REA             
                 CHD =     9028786.8864                   CHD =           0.2019     CANT            
                 CHD =     9164515.7546                   CHD =           0.2751     TECH            
                 CHD =    24324892.2831                   CHD =           0.5573     BOL             

            TOTAL IN =   248602931.7112              TOTAL IN =           4.9966

          OUT:                                     OUT:
          ----                                     ----
              STO-SS =     2815160.9614                STO-SS =       6.7052E-04     STORAGE         
              STO-SY =    13753714.4712                STO-SY =       4.1309E-03     STORAGE         
                 WEL =    78055481.2259                   WEL =           2.7122     WEL             
                 RCH =           0.0000                   RCH =           0.0000     RCHA            
                 CHD =    19555207.2547                   CHD =           0.2652     SEA             
                 CHD =    17396423.4701                   CHD =           0.2244     ETA             
                 CHD =    15293129.5990                   CHD =           0.1570     AGY             
                 CHD =    47536062.4362                   CHD =           0.7263     TET             
                 CHD =    18066935.8586                   CHD =           0.2982     REA             
                 CHD =     9938884.5926                   CHD =           0.1693     CANT            
                 CHD =    20199661.1302                   CHD =           0.3453     TECH            
                 CHD =     5991829.7248                   CHD =       9.3754E-02     BOL             

           TOTAL OUT =   248602490.7245             TOTAL OUT =           4.9965

            IN - OUT =         440.9867              IN - OUT =       1.0866E-04

 PERCENT DISCREPANCY =           0.00     PERCENT DISCREPANCY =           0.00




         TIME SUMMARY AT END OF TIME STEP    5 IN STRESS PERIOD   21
                    SECONDS     MINUTES      HOURS       DAYS        YEARS
                    -----------------------------------------------------------
   TIME STEP LENGTH 5.18400E+05  8640.0      144.00      6.0000     1.64271E-02
 STRESS PERIOD TIME 2.59200E+06  43200.      720.00      30.000     8.21355E-02
         TOTAL TIME 5.18400E+07 8.64000E+05  14400.      600.00      1.6427    

 OUTPUT CONTROL FOR STRESS PERIOD 22 IS REPEATED USING SETTINGS FROM A PREVIOUS STRESS PERIOD.


 STRESS PERIOD 22 IS TRANSIENT


 REUSING CHDS FROM LAST STRESS PERIOD

 REUSING CHDS FROM LAST STRESS PERIOD

 REUSING CHDS FROM LAST STRESS PERIOD

 REUSING CHDS FROM LAST STRESS PERIOD

 REUSING CHDS FROM LAST STRESS PERIOD

 REUSING CHDS FROM LAST STRESS PERIOD

 REUSING CHDS FROM LAST STRESS PERIOD

 REUSING CHDS FROM LAST STRESS PERIOD
 UBDSV1 SAVING     FLOW-JA-FACE ON UNIT   1024 AT TIME STEP      5, STRESS PERIOD     22
 UBDSV06 SAVING       DATA-SPDIS IN MODEL 2D_TRANS         PACKAGE NPF             CONNECTED TO MODEL 2D_TRANS         PACKAGE NPF              ON UNIT   1024 AT TIME STEP      5, STRESS PERIOD     22
 UBDSV06 SAVING              CHD IN MODEL 2D_TRANS         PACKAGE 2D_TRANS        CONNECTED TO MODEL 2D_TRANS         PACKAGE SEA              ON UNIT   1024 AT TIME STEP      5, STRESS PERIOD     22
 UBDSV06 SAVING              CHD IN MODEL 2D_TRANS         PACKAGE 2D_TRANS        CONNECTED TO MODEL 2D_TRANS         PACKAGE ETA              ON UNIT   1024 AT TIME STEP      5, STRESS PERIOD     22
 UBDSV06 SAVING              CHD IN MODEL 2D_TRANS         PACKAGE 2D_TRANS        CONNECTED TO MODEL 2D_TRANS         PACKAGE AGY              ON UNIT   1024 AT TIME STEP      5, STRESS PERIOD     22
 UBDSV06 SAVING              CHD IN MODEL 2D_TRANS         PACKAGE 2D_TRANS        CONNECTED TO MODEL 2D_TRANS         PACKAGE TET              ON UNIT   1024 AT TIME STEP      5, STRESS PERIOD     22
 UBDSV06 SAVING              CHD IN MODEL 2D_TRANS         PACKAGE 2D_TRANS        CONNECTED TO MODEL 2D_TRANS         PACKAGE REA              ON UNIT   1024 AT TIME STEP      5, STRESS PERIOD     22
 UBDSV06 SAVING              CHD IN MODEL 2D_TRANS         PACKAGE 2D_TRANS        CONNECTED TO MODEL 2D_TRANS         PACKAGE CANT             ON UNIT   1024 AT TIME STEP      5, STRESS PERIOD     22
 UBDSV06 SAVING              CHD IN MODEL 2D_TRANS         PACKAGE 2D_TRANS        CONNECTED TO MODEL 2D_TRANS         PACKAGE TECH             ON UNIT   1024 AT TIME STEP      5, STRESS PERIOD     22
 UBDSV06 SAVING              CHD IN MODEL 2D_TRANS         PACKAGE 2D_TRANS        CONNECTED TO MODEL 2D_TRANS         PACKAGE BOL              ON UNIT   1024 AT TIME STEP      5, STRESS PERIOD     22

 HEAD WILL BE SAVED ON UNIT 1025 AT END OF TIME STEP    5, STRESS PERIOD   22


  VOLUME BUDGET FOR ENTIRE MODEL AT END OF TIME STEP    5, STRESS PERIOD  22
  ---------------------------------------------------------------------------------------------------

     CUMULATIVE VOLUME      L**3       RATES FOR THIS TIME STEP      L**3/T          PACKAGE NAME    
     ------------------                 ------------------------                     ----------------

           IN:                                      IN:
           ---                                      ---
              STO-SS =     4257419.1225                STO-SS =       4.2397E-03     STORAGE         
              STO-SY =    21296687.9221                STO-SY =       2.6451E-02     STORAGE         
                 WEL =           0.0000                   WEL =           0.0000     WEL             
                 RCH =   146602895.5436                   RCH =           2.8406     RCHA            
                 CHD =      417485.0208                   CHD =       4.8817E-03     SEA             
                 CHD =      774686.0105                   CHD =       8.7119E-03     ETA             
                 CHD =     2921665.3801                   CHD =       6.2224E-02     AGY             
                 CHD =    19408009.8865                   CHD =           0.3847     TET             
                 CHD =    20384655.6286                   CHD =           0.4071     REA             
                 CHD =     9507977.3636                   CHD =           0.1817     CANT            
                 CHD =     9759312.5727                   CHD =           0.2093     TECH            
                 CHD =    25627585.7934                   CHD =           0.4799     BOL             

            TOTAL IN =   260958380.2444              TOTAL IN =           4.6098

          OUT:                                     OUT:
          ----                                     ----
              STO-SS =     3258086.1252                STO-SS =           0.1235     STORAGE         
              STO-SY =    15916418.5879                STO-SY =           0.6122     STORAGE         
                 WEL =    81145571.2459                   WEL =           1.1922     WEL             
                 RCH =           0.0000                   RCH =           0.0000     RCHA            
                 CHD =    20405103.8004                   CHD =           0.3492     SEA             
                 CHD =    18132114.1300                   CHD =           0.3031     ETA             
                 CHD =    15816915.0755                   CHD =           0.2238     AGY             
                 CHD =    49609744.5817                   CHD =           0.8318     TET             
                 CHD =    18880310.2932                   CHD =           0.3202     REA             
                 CHD =    10404807.9704                   CHD =           0.1825     CANT            
                 CHD =    21133097.8212                   CHD =           0.3660     TECH            
                 CHD =     6255776.9835                   CHD =           0.1053     BOL             

           TOTAL OUT =   260957946.6148             TOTAL OUT =           4.6098

            IN - OUT =         433.6296              IN - OUT =       1.6355E-05

 PERCENT DISCREPANCY =           0.00     PERCENT DISCREPANCY =           0.00




         TIME SUMMARY AT END OF TIME STEP    5 IN STRESS PERIOD   22
                    SECONDS     MINUTES      HOURS       DAYS        YEARS
                    -----------------------------------------------------------
   TIME STEP LENGTH 5.18400E+05  8640.0      144.00      6.0000     1.64271E-02
 STRESS PERIOD TIME 2.59200E+06  43200.      720.00      30.000     8.21355E-02
         TOTAL TIME 5.44320E+07 9.07200E+05  15120.      630.00      1.7248    

 OUTPUT CONTROL FOR STRESS PERIOD 23 IS REPEATED USING SETTINGS FROM A PREVIOUS STRESS PERIOD.


 STRESS PERIOD 23 IS TRANSIENT


 REUSING CHDS FROM LAST STRESS PERIOD

 REUSING CHDS FROM LAST STRESS PERIOD

 REUSING CHDS FROM LAST STRESS PERIOD

 REUSING CHDS FROM LAST STRESS PERIOD

 REUSING CHDS FROM LAST STRESS PERIOD

 REUSING CHDS FROM LAST STRESS PERIOD

 REUSING CHDS FROM LAST STRESS PERIOD

 REUSING CHDS FROM LAST STRESS PERIOD
 UBDSV1 SAVING     FLOW-JA-FACE ON UNIT   1024 AT TIME STEP      5, STRESS PERIOD     23
 UBDSV06 SAVING       DATA-SPDIS IN MODEL 2D_TRANS         PACKAGE NPF             CONNECTED TO MODEL 2D_TRANS         PACKAGE NPF              ON UNIT   1024 AT TIME STEP      5, STRESS PERIOD     23
 UBDSV06 SAVING              CHD IN MODEL 2D_TRANS         PACKAGE 2D_TRANS        CONNECTED TO MODEL 2D_TRANS         PACKAGE SEA              ON UNIT   1024 AT TIME STEP      5, STRESS PERIOD     23
 UBDSV06 SAVING              CHD IN MODEL 2D_TRANS         PACKAGE 2D_TRANS        CONNECTED TO MODEL 2D_TRANS         PACKAGE ETA              ON UNIT   1024 AT TIME STEP      5, STRESS PERIOD     23
 UBDSV06 SAVING              CHD IN MODEL 2D_TRANS         PACKAGE 2D_TRANS        CONNECTED TO MODEL 2D_TRANS         PACKAGE AGY              ON UNIT   1024 AT TIME STEP      5, STRESS PERIOD     23
 UBDSV06 SAVING              CHD IN MODEL 2D_TRANS         PACKAGE 2D_TRANS        CONNECTED TO MODEL 2D_TRANS         PACKAGE TET              ON UNIT   1024 AT TIME STEP      5, STRESS PERIOD     23
 UBDSV06 SAVING              CHD IN MODEL 2D_TRANS         PACKAGE 2D_TRANS        CONNECTED TO MODEL 2D_TRANS         PACKAGE REA              ON UNIT   1024 AT TIME STEP      5, STRESS PERIOD     23
 UBDSV06 SAVING              CHD IN MODEL 2D_TRANS         PACKAGE 2D_TRANS        CONNECTED TO MODEL 2D_TRANS         PACKAGE CANT             ON UNIT   1024 AT TIME STEP      5, STRESS PERIOD     23
 UBDSV06 SAVING              CHD IN MODEL 2D_TRANS         PACKAGE 2D_TRANS        CONNECTED TO MODEL 2D_TRANS         PACKAGE TECH             ON UNIT   1024 AT TIME STEP      5, STRESS PERIOD     23
 UBDSV06 SAVING              CHD IN MODEL 2D_TRANS         PACKAGE 2D_TRANS        CONNECTED TO MODEL 2D_TRANS         PACKAGE BOL              ON UNIT   1024 AT TIME STEP      5, STRESS PERIOD     23

 HEAD WILL BE SAVED ON UNIT 1025 AT END OF TIME STEP    5, STRESS PERIOD   23


  VOLUME BUDGET FOR ENTIRE MODEL AT END OF TIME STEP    5, STRESS PERIOD  23
  ---------------------------------------------------------------------------------------------------

     CUMULATIVE VOLUME      L**3       RATES FOR THIS TIME STEP      L**3/T          PACKAGE NAME    
     ------------------                 ------------------------                     ----------------

           IN:                                      IN:
           ---                                      ---
              STO-SS =     4257419.1225                STO-SS =           0.0000     STORAGE         
              STO-SY =    21296687.9221                STO-SY =           0.0000     STORAGE         
                 WEL =           0.0000                   WEL =           0.0000     WEL             
                 RCH =   160612515.7816                   RCH =           5.4049     RCHA            
                 CHD =      421281.4347                   CHD =       1.3616E-03     SEA             
                 CHD =      782813.9670                   CHD =       3.0174E-03     ETA             
                 CHD =     2988622.1319                   CHD =       1.5799E-02     AGY             
                 CHD =    20112898.6066                   CHD =           0.2353     TET             
                 CHD =    21307905.9287                   CHD =           0.3354     REA             
                 CHD =     9923340.8409                   CHD =           0.1526     CANT            
                 CHD =    10183014.2606                   CHD =           0.1441     TECH            
                 CHD =    26746850.2650                   CHD =           0.4145     BOL             

            TOTAL IN =   278633350.2616              TOTAL IN =           6.7070

          OUT:                                     OUT:
          ----                                     ----
              STO-SS =     4425728.3885                STO-SS =           0.3875     STORAGE         
              STO-SY =    21514491.5780                STO-SY =           1.8482     STORAGE         
                 WEL =    83344274.8000                   WEL =           0.8483     WEL             
                 RCH =           0.0000                   RCH =           0.0000     RCHA            
                 CHD =    21660864.0653                   CHD =           0.5236     SEA             
                 CHD =    19287315.1319                   CHD =           0.4892     ETA             
                 CHD =    16716073.3835                   CHD =           0.4065     AGY             
                 CHD =    52159461.1449                   CHD =           1.0495     TET             
                 CHD =    19810532.6202                   CHD =           0.3778     REA             
                 CHD =    10930875.8788                   CHD =           0.2114     CANT            
                 CHD =    22195494.6310                   CHD =           0.4279     TECH            
                 CHD =     6587779.5869                   CHD =           0.1371     BOL             

           TOTAL OUT =   278632891.2089             TOTAL OUT =           6.7070

            IN - OUT =         459.0527              IN - OUT =      -1.3955E-05

 PERCENT DISCREPANCY =           0.00     PERCENT DISCREPANCY =          -0.00




         TIME SUMMARY AT END OF TIME STEP    5 IN STRESS PERIOD   23
                    SECONDS     MINUTES      HOURS       DAYS        YEARS
                    -----------------------------------------------------------
   TIME STEP LENGTH 5.18400E+05  8640.0      144.00      6.0000     1.64271E-02
 STRESS PERIOD TIME 2.59200E+06  43200.      720.00      30.000     8.21355E-02
         TOTAL TIME 5.70240E+07 9.50400E+05  15840.      660.00      1.8070    

 OUTPUT CONTROL FOR STRESS PERIOD 24 IS REPEATED USING SETTINGS FROM A PREVIOUS STRESS PERIOD.


 STRESS PERIOD 24 IS TRANSIENT


 REUSING CHDS FROM LAST STRESS PERIOD

 REUSING CHDS FROM LAST STRESS PERIOD

 REUSING CHDS FROM LAST STRESS PERIOD

 REUSING CHDS FROM LAST STRESS PERIOD

 REUSING CHDS FROM LAST STRESS PERIOD

 REUSING CHDS FROM LAST STRESS PERIOD

 REUSING CHDS FROM LAST STRESS PERIOD

 REUSING CHDS FROM LAST STRESS PERIOD
 UBDSV1 SAVING     FLOW-JA-FACE ON UNIT   1024 AT TIME STEP      5, STRESS PERIOD     24
 UBDSV06 SAVING       DATA-SPDIS IN MODEL 2D_TRANS         PACKAGE NPF             CONNECTED TO MODEL 2D_TRANS         PACKAGE NPF              ON UNIT   1024 AT TIME STEP      5, STRESS PERIOD     24
 UBDSV06 SAVING              CHD IN MODEL 2D_TRANS         PACKAGE 2D_TRANS        CONNECTED TO MODEL 2D_TRANS         PACKAGE SEA              ON UNIT   1024 AT TIME STEP      5, STRESS PERIOD     24
 UBDSV06 SAVING              CHD IN MODEL 2D_TRANS         PACKAGE 2D_TRANS        CONNECTED TO MODEL 2D_TRANS         PACKAGE ETA              ON UNIT   1024 AT TIME STEP      5, STRESS PERIOD     24
 UBDSV06 SAVING              CHD IN MODEL 2D_TRANS         PACKAGE 2D_TRANS        CONNECTED TO MODEL 2D_TRANS         PACKAGE AGY              ON UNIT   1024 AT TIME STEP      5, STRESS PERIOD     24
 UBDSV06 SAVING              CHD IN MODEL 2D_TRANS         PACKAGE 2D_TRANS        CONNECTED TO MODEL 2D_TRANS         PACKAGE TET              ON UNIT   1024 AT TIME STEP      5, STRESS PERIOD     24
 UBDSV06 SAVING              CHD IN MODEL 2D_TRANS         PACKAGE 2D_TRANS        CONNECTED TO MODEL 2D_TRANS         PACKAGE REA              ON UNIT   1024 AT TIME STEP      5, STRESS PERIOD     24
 UBDSV06 SAVING              CHD IN MODEL 2D_TRANS         PACKAGE 2D_TRANS        CONNECTED TO MODEL 2D_TRANS         PACKAGE CANT             ON UNIT   1024 AT TIME STEP      5, STRESS PERIOD     24
 UBDSV06 SAVING              CHD IN MODEL 2D_TRANS         PACKAGE 2D_TRANS        CONNECTED TO MODEL 2D_TRANS         PACKAGE TECH             ON UNIT   1024 AT TIME STEP      5, STRESS PERIOD     24
 UBDSV06 SAVING              CHD IN MODEL 2D_TRANS         PACKAGE 2D_TRANS        CONNECTED TO MODEL 2D_TRANS         PACKAGE BOL              ON UNIT   1024 AT TIME STEP      5, STRESS PERIOD     24

 HEAD WILL BE SAVED ON UNIT 1025 AT END OF TIME STEP    5, STRESS PERIOD   24


  VOLUME BUDGET FOR ENTIRE MODEL AT END OF TIME STEP    5, STRESS PERIOD  24
  ---------------------------------------------------------------------------------------------------

     CUMULATIVE VOLUME      L**3       RATES FOR THIS TIME STEP      L**3/T          PACKAGE NAME    
     ------------------                 ------------------------                     ----------------

           IN:                                      IN:
           ---                                      ---
              STO-SS =     4312869.7055                STO-SS =       3.5618E-03     STORAGE         
              STO-SY =    21408320.9926                STO-SY =       1.0536E-02     STORAGE         
                 WEL =           0.0000                   WEL =           0.0000     WEL             
                 RCH =   169796600.1594                   RCH =           3.5432     RCHA            
                 CHD =      427197.6131                   CHD =       2.3250E-03     SEA             
                 CHD =      791994.9169                   CHD =       3.5674E-03     ETA             
                 CHD =     3033353.9414                   CHD =       1.7115E-02     AGY             
                 CHD =    20753698.0666                   CHD =           0.2468     TET             
                 CHD =    22183702.2113                   CHD =           0.3356     REA             
                 CHD =    10331287.5723                   CHD =           0.1580     CANT            
                 CHD =    10552363.4059                   CHD =           0.1387     TECH            
                 CHD =    27840577.8465                   CHD =           0.4227     BOL             

            TOTAL IN =   291431966.4313              TOTAL IN =           4.8822

          OUT:                                     OUT:
          ----                                     ----
              STO-SS =     4684173.5209                STO-SS =       9.3682E-02     STORAGE         
              STO-SY =    22925803.1408                STO-SY =           0.5004     STORAGE         
                 WEL =    85542978.3541                   WEL =           0.8483     WEL             
                 RCH =           0.0000                   RCH =           0.0000     RCHA            
                 CHD =    22867620.5418                   CHD =           0.4583     SEA             
                 CHD =    20405243.2072                   CHD =           0.4255     ETA             
                 CHD =    17734179.7965                   CHD =           0.3963     AGY             
                 CHD =    54818064.2086                   CHD =           1.0284     TET             
                 CHD =    20779076.6291                   CHD =           0.3756     REA             
                 CHD =    11467218.5345                   CHD =           0.2065     CANT            
                 CHD =    23279262.8937                   CHD =           0.4181     TECH            
                 CHD =     6927857.8155                   CHD =           0.1310     BOL             

           TOTAL OUT =   291431478.6427             TOTAL OUT =           4.8821

            IN - OUT =         487.7886              IN - OUT =       2.9160E-05

 PERCENT DISCREPANCY =           0.00     PERCENT DISCREPANCY =           0.00




         TIME SUMMARY AT END OF TIME STEP    5 IN STRESS PERIOD   24
                    SECONDS     MINUTES      HOURS       DAYS        YEARS
                    -----------------------------------------------------------
   TIME STEP LENGTH 5.18400E+05  8640.0      144.00      6.0000     1.64271E-02
 STRESS PERIOD TIME 2.59200E+06  43200.      720.00      30.000     8.21355E-02
         TOTAL TIME 5.96160E+07 9.93600E+05  16560.      690.00      1.8891    
