                                   MODFLOW 6
                U.S. GEOLOGICAL SURVEY MODULAR HYDROLOGIC MODEL
                          GROUNDWATER FLOW MODEL (GWF)
                            VERSION 6.0.4 03/13/2019

   MODFLOW 6 compiled Mar 21 2019 15:37:31 with IFORT compiler (ver. 19.0.0)

This software has been approved for release by the U.S. Geological 
Survey (USGS). Although the software has been subjected to rigorous 
review, the USGS reserves the right to update the software as needed 
pursuant to further analysis and review. No warranty, expressed or 
implied, is made by the USGS or the U.S. Government as to the 
functionality of the software and related material nor shall the 
fact of release constitute any such warranty. Furthermore, the 
software is released on condition that neither the USGS nor the U.S. 
Government shall be held liable for any damages resulting from its 
authorized or unauthorized use. Also refer to the USGS Water 
Resources Software User Rights Notice for complete use, copyright, 
and distribution information.


MODFLOW was compiled using uniform precision.
Precision of REAL variables: 15


 OPENED test_trans.dis
 FILE TYPE:DIS6                   UNIT 1005   STATUS:OLD                 
 FORMAT:FORMATTED              ACCESS:SEQUENTIAL          
 ACTION:READ                


 OPENED test_trans.ic
 FILE TYPE:IC6                    UNIT 1006   STATUS:OLD                 
 FORMAT:FORMATTED              ACCESS:SEQUENTIAL          
 ACTION:READ                


 OPENED test_trans.npf
 FILE TYPE:NPF6                   UNIT 1007   STATUS:OLD                 
 FORMAT:FORMATTED              ACCESS:SEQUENTIAL          
 ACTION:READ                


 OPENED test_trans.oc
 FILE TYPE:OC6                    UNIT 1008   STATUS:OLD                 
 FORMAT:FORMATTED              ACCESS:SEQUENTIAL          
 ACTION:READ                


 OPENED test_trans.sto
 FILE TYPE:STO6                   UNIT 1009   STATUS:OLD                 
 FORMAT:FORMATTED              ACCESS:SEQUENTIAL          
 ACTION:READ                


 OPENED test_trans.rcha
 FILE TYPE:RCH6                   UNIT 1010   STATUS:OLD                 
 FORMAT:FORMATTED              ACCESS:SEQUENTIAL          
 ACTION:READ                


 OPENED test_trans.chd
 FILE TYPE:CHD6                   UNIT 1011   STATUS:OLD                 
 FORMAT:FORMATTED              ACCESS:SEQUENTIAL          
 ACTION:READ                


 OPENED test_trans.obs
 FILE TYPE:OBS6                   UNIT 1012   STATUS:OLD                 
 FORMAT:FORMATTED              ACCESS:SEQUENTIAL          
 ACTION:READ                

 NAMEFILE OPTIONS:
    FLOWS WILL BE SAVED TO BUDGET FILE SPECIFIED IN OUTPUT CONTROL

 DIS -- STRUCTURED GRID DISCRETIZATION PACKAGE, VERSION 2 : 3/27/2014 - INPUT READ FROM UNIT 1005


 PROCESSING DISCRETIZATION OPTIONS
 END OF DISCRETIZATION OPTIONS
 MODEL LENGTH UNIT IS UNDEFINED
 PROCESSING DISCRETIZATION DIMENSIONS
    NLAY =       1
    NROW =      30
    NCOL =      30
 END OF DISCRETIZATION DIMENSIONS
 PROCESSING GRIDDATA

                     DELR =   10.00000    

                     DELC =   10.00000    

 TOP ELEVATION OF LAYER 1 =   30.00000    

   MODEL LAYER BOTTOM EL. =   23.00000    

                  IDOMAIN = 1
 END PROCESSING GRIDDATA

 NPF -- NODE PROPERTY FLOW PACKAGE, VERSION 1, 3/30/2015 INPUT READ FROM UNIT 1007


 PROCESSING NPF OPTIONS
    CELL-BY-CELL FLOW INFORMATION WILL BE SAVED TO BINARY FILE WHENEVER ICBCFL IS NOT ZERO.
 END OF NPF OPTIONS

 RCH   -- RCH PACKAGE, VERSION 8, 2/22/2014 INPUT READ FROM UNIT 1010

 PROCESSING RCH OPTIONS
    RECHARGE INPUT WILL BE READ AS ARRAY(S).
 END OF RCH OPTIONS

 CHD   -- CHD PACKAGE, VERSION 8, 2/22/2014 INPUT READ FROM UNIT 1011

 PROCESSING CHD OPTIONS
 END OF CHD OPTIONS

 PROCESSING CHD DIMENSIONS
    MAXBOUND =      30
 END OF CHD DIMENSIONS

 IC -- INITIAL CONDITIONS PACKAGE, VERSION 8, 3/28/2015 INPUT READ FROM UNIT 1006
 PROCESSING GRIDDATA

     INITIAL HEAD =   25.00000    
 END PROCESSING GRIDDATA
 PROCESSING GRIDDATA

                ICELLTYPE = 1

                        K =   8.640000    
 K33 not provided.  Assuming K33 = K.
 K22 not provided.  Assuming K22 = K.
 END PROCESSING GRIDDATA

 STO -- STORAGE PACKAGE, VERSION 1, 5/19/2014 INPUT READ FROM UNIT 1009


 PROCESSING STORAGE OPTIONS
    CELL-BY-CELL FLOW INFORMATION WILL BE SAVED TO BINARY FILE WHENEVER ICBCFL IS NOT ZERO.
 END OF STORAGE OPTIONS
 PROCESSING GRIDDATA

                 ICONVERT = 1

         SPECIFIC STORAGE =  0.1000000E-04

           SPECIFIC YIELD =  0.2000000    
 END PROCESSING GRIDDATA

The observation utility is active for "TEST_TRANS"

Processing observation options:

Text output number of digits of precision set to: 10
The PRINT_INPUT option has been specified.


Observations read from file "test_trans.obs":
Name                                      Type                             Time         Location data
----------------------------------------  -------------------------------  -----------  --------------------------
COL 5                                     Continuous HEAD                  All times    "1 16 6"
COL 10                                    Continuous HEAD                  All times    "1 16 11"
COL 20                                    Continuous HEAD                  All times    "1 16 21"
    BINARY GRID INFORMATION WILL BE WRITTEN TO:
      UNIT NUMBER: 1015
      FILE NAME: M:\GitHub\TM_Ludovic_Schorpp\codes_tests\notebooks_essais\transitoire\workspace\test_trans.dis.grb

 OPENED M:\GitHub\TM_Ludovic_Schorpp\codes_tests\notebooks_essais\transitoire\workspace\test_trans.dis.grb
 FILE TYPE:DATA(BINARY)   UNIT 1015   STATUS:REPLACE             
 FORMAT:UNFORMATTED            ACCESS:STREAM              
 ACTION:READWRITE           

      THE LAST TIME STEP WILL BE PRINTED
      THE LAST TIME STEP WILL BE PRINTED
 PROCESSING OC OPTIONS
    BUDGET INFORMATION WILL BE WRITTEN TO:
      UNIT NUMBER: 1016
      FILE NAME: test_trans.cbb

 OPENED test_trans.cbb
 FILE TYPE:DATA(BINARY)   UNIT 1016   STATUS:REPLACE             
 FORMAT:UNFORMATTED            ACCESS:STREAM              
 ACTION:READWRITE           

    HEAD INFORMATION WILL BE WRITTEN TO:
      UNIT NUMBER: 1017
      FILE NAME: test_trans.hds

 OPENED test_trans.hds
 FILE TYPE:DATA(BINARY)   UNIT 1017   STATUS:REPLACE             
 FORMAT:UNFORMATTED            ACCESS:STREAM              
 ACTION:READWRITE           

 END OF OC OPTIONS

 BEGIN READING OUTPUT CONTROL FOR STRESS PERIOD 1
      ALL TIME STEPS WILL BE SAVED
      ALL TIME STEPS WILL BE SAVED
      ALL TIME STEPS WILL BE PRINTED

 END READING OUTPUT CONTROL FOR STRESS PERIOD 1


 UPDATING STORAGE VALUES
 END UPDATING STORAGE VALUES


 STRESS PERIOD 1 IS STEADY-STATE


                 RECHARGE =  0.2739730E-02
 UBDSV1 SAVING           STO-SS ON UNIT   1016 AT TIME STEP      1, STRESS PERIOD      1
 UBDSV1 SAVING           STO-SY ON UNIT   1016 AT TIME STEP      1, STRESS PERIOD      1
 UBDSV1 SAVING     FLOW-JA-FACE ON UNIT   1016 AT TIME STEP      1, STRESS PERIOD      1
 UBDSV06 SAVING              RCH IN MODEL TEST_TRANS       PACKAGE TEST_TRANS      CONNECTED TO MODEL TEST_TRANS       PACKAGE RCHA             ON UNIT   1016 AT TIME STEP      1, STRESS PERIOD      1
 UBDSV06 SAVING              CHD IN MODEL TEST_TRANS       PACKAGE TEST_TRANS      CONNECTED TO MODEL TEST_TRANS       PACKAGE CHD              ON UNIT   1016 AT TIME STEP      1, STRESS PERIOD      1

 HEAD WILL BE SAVED ON UNIT 1017 AT END OF TIME STEP    1, STRESS PERIOD    1


  VOLUME BUDGET FOR ENTIRE MODEL AT END OF TIME STEP    1, STRESS PERIOD   1
  ---------------------------------------------------------------------------------------------------

     CUMULATIVE VOLUME      L**3       RATES FOR THIS TIME STEP      L**3/T          PACKAGE NAME    
     ------------------                 ------------------------                     ----------------

           IN:                                      IN:
           ---                                      ---
              STO-SS =           0.0000                STO-SS =           0.0000     STORAGE         
              STO-SY =           0.0000                STO-SY =           0.0000     STORAGE         
                 RCH =         238.3565                   RCH =         238.3565     RCHA            
                 CHD =           0.0000                   CHD =           0.0000     CHD             

            TOTAL IN =         238.3565              TOTAL IN =         238.3565

          OUT:                                     OUT:
          ----                                     ----
              STO-SS =           0.0000                STO-SS =           0.0000     STORAGE         
              STO-SY =           0.0000                STO-SY =           0.0000     STORAGE         
                 RCH =           0.0000                   RCH =           0.0000     RCHA            
                 CHD =         238.3675                   CHD =         238.3675     CHD             

           TOTAL OUT =         238.3675             TOTAL OUT =         238.3675

            IN - OUT =      -1.0985E-02              IN - OUT =      -1.0985E-02

 PERCENT DISCREPANCY =          -0.00     PERCENT DISCREPANCY =          -0.00




         TIME SUMMARY AT END OF TIME STEP    1 IN STRESS PERIOD    1
                    SECONDS     MINUTES      HOURS       DAYS        YEARS
                    -----------------------------------------------------------
   TIME STEP LENGTH  86400.      1440.0      24.000      1.0000     2.73785E-03
 STRESS PERIOD TIME  86400.      1440.0      24.000      1.0000     2.73785E-03
         TOTAL TIME  86400.      1440.0      24.000      1.0000     2.73785E-03

 END OF FILE DETECTED IN OUTPUT CONTROL.
 CURRENT OUTPUT CONTROL SETTINGS WILL BE 
 REPEATED UNTIL THE END OF THE SIMULATION.

 OUTPUT CONTROL FOR STRESS PERIOD 2 IS REPEATED USING SETTINGS FROM A PREVIOUS STRESS PERIOD.


 UPDATING STORAGE VALUES
 END UPDATING STORAGE VALUES


 STRESS PERIOD 2 IS TRANSIENT


                 RECHARGE =  0.3287670E-02
 UBDSV1 SAVING           STO-SS ON UNIT   1016 AT TIME STEP      1, STRESS PERIOD      2
 UBDSV1 SAVING           STO-SY ON UNIT   1016 AT TIME STEP      1, STRESS PERIOD      2
 UBDSV1 SAVING     FLOW-JA-FACE ON UNIT   1016 AT TIME STEP      1, STRESS PERIOD      2
 UBDSV06 SAVING              RCH IN MODEL TEST_TRANS       PACKAGE TEST_TRANS      CONNECTED TO MODEL TEST_TRANS       PACKAGE RCHA             ON UNIT   1016 AT TIME STEP      1, STRESS PERIOD      2
 UBDSV06 SAVING              CHD IN MODEL TEST_TRANS       PACKAGE TEST_TRANS      CONNECTED TO MODEL TEST_TRANS       PACKAGE CHD              ON UNIT   1016 AT TIME STEP      1, STRESS PERIOD      2

 HEAD WILL BE SAVED ON UNIT 1017 AT END OF TIME STEP    1, STRESS PERIOD    2


  VOLUME BUDGET FOR ENTIRE MODEL AT END OF TIME STEP    1, STRESS PERIOD   2
  ---------------------------------------------------------------------------------------------------

     CUMULATIVE VOLUME      L**3       RATES FOR THIS TIME STEP      L**3/T          PACKAGE NAME    
     ------------------                 ------------------------                     ----------------

           IN:                                      IN:
           ---                                      ---
              STO-SS =           0.0000                STO-SS =           0.0000     STORAGE         
              STO-SY =           0.0000                STO-SY =           0.0000     STORAGE         
                 RCH =        1096.4384                   RCH =         286.0273     RCHA            
                 CHD =           0.0000                   CHD =           0.0000     CHD             

            TOTAL IN =        1096.4384              TOTAL IN =         286.0273

          OUT:                                     OUT:
          ----                                     ----
              STO-SS =           0.2791                STO-SS =       9.3038E-02     STORAGE         
              STO-SY =         181.2231                STO-SY =          60.4077     STORAGE         
                 RCH =           0.0000                   RCH =           0.0000     RCHA            
                 CHD =         914.9356                   CHD =         225.5227     CHD             

           TOTAL OUT =        1096.4378             TOTAL OUT =         286.0234

            IN - OUT =       5.7222E-04              IN - OUT =       3.8523E-03

 PERCENT DISCREPANCY =           0.00     PERCENT DISCREPANCY =           0.00




         TIME SUMMARY AT END OF TIME STEP    1 IN STRESS PERIOD    2
                    SECONDS     MINUTES      HOURS       DAYS        YEARS
                    -----------------------------------------------------------
   TIME STEP LENGTH 2.59200E+05  4320.0      72.000      3.0000     8.21355E-03
 STRESS PERIOD TIME 2.59200E+05  4320.0      72.000      3.0000     8.21355E-03
         TOTAL TIME 3.45600E+05  5760.0      96.000      4.0000     1.09514E-02
 UBDSV1 SAVING           STO-SS ON UNIT   1016 AT TIME STEP      2, STRESS PERIOD      2
 UBDSV1 SAVING           STO-SY ON UNIT   1016 AT TIME STEP      2, STRESS PERIOD      2
 UBDSV1 SAVING     FLOW-JA-FACE ON UNIT   1016 AT TIME STEP      2, STRESS PERIOD      2
 UBDSV06 SAVING              RCH IN MODEL TEST_TRANS       PACKAGE TEST_TRANS      CONNECTED TO MODEL TEST_TRANS       PACKAGE RCHA             ON UNIT   1016 AT TIME STEP      2, STRESS PERIOD      2
 UBDSV06 SAVING              CHD IN MODEL TEST_TRANS       PACKAGE TEST_TRANS      CONNECTED TO MODEL TEST_TRANS       PACKAGE CHD              ON UNIT   1016 AT TIME STEP      2, STRESS PERIOD      2

 HEAD WILL BE SAVED ON UNIT 1017 AT END OF TIME STEP    2, STRESS PERIOD    2


  VOLUME BUDGET FOR ENTIRE MODEL AT END OF TIME STEP    2, STRESS PERIOD   2
  ---------------------------------------------------------------------------------------------------

     CUMULATIVE VOLUME      L**3       RATES FOR THIS TIME STEP      L**3/T          PACKAGE NAME    
     ------------------                 ------------------------                     ----------------

           IN:                                      IN:
           ---                                      ---
              STO-SS =           0.0000                STO-SS =           0.0000     STORAGE         
              STO-SY =           0.0000                STO-SY =           0.0000     STORAGE         
                 RCH =        1954.5203                   RCH =         286.0273     RCHA            
                 CHD =           0.0000                   CHD =           0.0000     CHD             

            TOTAL IN =        1954.5203              TOTAL IN =         286.0273

          OUT:                                     OUT:
          ----                                     ----
              STO-SS =           0.5303                STO-SS =       8.3712E-02     STORAGE         
              STO-SY =         341.5080                STO-SY =          53.4283     STORAGE         
                 RCH =           0.0000                   RCH =           0.0000     RCHA            
                 CHD =        1612.4769                   CHD =         232.5138     CHD             

           TOTAL OUT =        1954.5151             TOTAL OUT =         286.0258

            IN - OUT =       5.1020E-03              IN - OUT =       1.5099E-03

 PERCENT DISCREPANCY =           0.00     PERCENT DISCREPANCY =           0.00




         TIME SUMMARY AT END OF TIME STEP    2 IN STRESS PERIOD    2
                    SECONDS     MINUTES      HOURS       DAYS        YEARS
                    -----------------------------------------------------------
   TIME STEP LENGTH 2.59200E+05  4320.0      72.000      3.0000     8.21355E-03
 STRESS PERIOD TIME 5.18400E+05  8640.0      144.00      6.0000     1.64271E-02
         TOTAL TIME 6.04800E+05  10080.      168.00      7.0000     1.91650E-02
 UBDSV1 SAVING           STO-SS ON UNIT   1016 AT TIME STEP      3, STRESS PERIOD      2
 UBDSV1 SAVING           STO-SY ON UNIT   1016 AT TIME STEP      3, STRESS PERIOD      2
 UBDSV1 SAVING     FLOW-JA-FACE ON UNIT   1016 AT TIME STEP      3, STRESS PERIOD      2
 UBDSV06 SAVING              RCH IN MODEL TEST_TRANS       PACKAGE TEST_TRANS      CONNECTED TO MODEL TEST_TRANS       PACKAGE RCHA             ON UNIT   1016 AT TIME STEP      3, STRESS PERIOD      2
 UBDSV06 SAVING              CHD IN MODEL TEST_TRANS       PACKAGE TEST_TRANS      CONNECTED TO MODEL TEST_TRANS       PACKAGE CHD              ON UNIT   1016 AT TIME STEP      3, STRESS PERIOD      2

 HEAD WILL BE SAVED ON UNIT 1017 AT END OF TIME STEP    3, STRESS PERIOD    2


  VOLUME BUDGET FOR ENTIRE MODEL AT END OF TIME STEP    3, STRESS PERIOD   2
  ---------------------------------------------------------------------------------------------------

     CUMULATIVE VOLUME      L**3       RATES FOR THIS TIME STEP      L**3/T          PACKAGE NAME    
     ------------------                 ------------------------                     ----------------

           IN:                                      IN:
           ---                                      ---
              STO-SS =           0.0000                STO-SS =           0.0000     STORAGE         
              STO-SY =           0.0000                STO-SY =           0.0000     STORAGE         
                 RCH =        2812.6021                   RCH =         286.0273     RCHA            
                 CHD =           0.0000                   CHD =           0.0000     CHD             

            TOTAL IN =        2812.6021              TOTAL IN =         286.0273

          OUT:                                     OUT:
          ----                                     ----
              STO-SS =           0.7661                STO-SS =       7.8621E-02     STORAGE         
              STO-SY =         490.6876                STO-SY =          49.7265     STORAGE         
                 RCH =           0.0000                   RCH =           0.0000     RCHA            
                 CHD =        2321.1602                   CHD =         236.2278     CHD             

           TOTAL OUT =        2812.6139             TOTAL OUT =         286.0329

            IN - OUT =      -1.1791E-02              IN - OUT =      -5.6312E-03

 PERCENT DISCREPANCY =          -0.00     PERCENT DISCREPANCY =          -0.00




         TIME SUMMARY AT END OF TIME STEP    3 IN STRESS PERIOD    2
                    SECONDS     MINUTES      HOURS       DAYS        YEARS
                    -----------------------------------------------------------
   TIME STEP LENGTH 2.59200E+05  4320.0      72.000      3.0000     8.21355E-03
 STRESS PERIOD TIME 7.77600E+05  12960.      216.00      9.0000     2.46407E-02
         TOTAL TIME 8.64000E+05  14400.      240.00      10.000     2.73785E-02
 UBDSV1 SAVING           STO-SS ON UNIT   1016 AT TIME STEP      4, STRESS PERIOD      2
 UBDSV1 SAVING           STO-SY ON UNIT   1016 AT TIME STEP      4, STRESS PERIOD      2
 UBDSV1 SAVING     FLOW-JA-FACE ON UNIT   1016 AT TIME STEP      4, STRESS PERIOD      2
 UBDSV06 SAVING              RCH IN MODEL TEST_TRANS       PACKAGE TEST_TRANS      CONNECTED TO MODEL TEST_TRANS       PACKAGE RCHA             ON UNIT   1016 AT TIME STEP      4, STRESS PERIOD      2
 UBDSV06 SAVING              CHD IN MODEL TEST_TRANS       PACKAGE TEST_TRANS      CONNECTED TO MODEL TEST_TRANS       PACKAGE CHD              ON UNIT   1016 AT TIME STEP      4, STRESS PERIOD      2

 HEAD WILL BE SAVED ON UNIT 1017 AT END OF TIME STEP    4, STRESS PERIOD    2


  VOLUME BUDGET FOR ENTIRE MODEL AT END OF TIME STEP    4, STRESS PERIOD   2
  ---------------------------------------------------------------------------------------------------

     CUMULATIVE VOLUME      L**3       RATES FOR THIS TIME STEP      L**3/T          PACKAGE NAME    
     ------------------                 ------------------------                     ----------------

           IN:                                      IN:
           ---                                      ---
              STO-SS =           0.0000                STO-SS =           0.0000     STORAGE         
              STO-SY =           0.0000                STO-SY =           0.0000     STORAGE         
                 RCH =        3670.6840                   RCH =         286.0273     RCHA            
                 CHD =           0.0000                   CHD =           0.0000     CHD             

            TOTAL IN =        3670.6840              TOTAL IN =         286.0273

          OUT:                                     OUT:
          ----                                     ----
              STO-SS =           0.9915                STO-SS =       7.5140E-02     STORAGE         
              STO-SY =         632.4520                STO-SY =          47.2548     STORAGE         
                 RCH =           0.0000                   RCH =           0.0000     RCHA            
                 CHD =        3037.2853                   CHD =         238.7083     CHD             

           TOTAL OUT =        3670.7288             TOTAL OUT =         286.0383

            IN - OUT =      -4.4791E-02              IN - OUT =      -1.1000E-02

 PERCENT DISCREPANCY =          -0.00     PERCENT DISCREPANCY =          -0.00




         TIME SUMMARY AT END OF TIME STEP    4 IN STRESS PERIOD    2
                    SECONDS     MINUTES      HOURS       DAYS        YEARS
                    -----------------------------------------------------------
   TIME STEP LENGTH 2.59200E+05  4320.0      72.000      3.0000     8.21355E-03
 STRESS PERIOD TIME 1.03680E+06  17280.      288.00      12.000     3.28542E-02
         TOTAL TIME 1.12320E+06  18720.      312.00      13.000     3.55921E-02
 UBDSV1 SAVING           STO-SS ON UNIT   1016 AT TIME STEP      5, STRESS PERIOD      2
 UBDSV1 SAVING           STO-SY ON UNIT   1016 AT TIME STEP      5, STRESS PERIOD      2
 UBDSV1 SAVING     FLOW-JA-FACE ON UNIT   1016 AT TIME STEP      5, STRESS PERIOD      2
 UBDSV06 SAVING              RCH IN MODEL TEST_TRANS       PACKAGE TEST_TRANS      CONNECTED TO MODEL TEST_TRANS       PACKAGE RCHA             ON UNIT   1016 AT TIME STEP      5, STRESS PERIOD      2
 UBDSV06 SAVING              CHD IN MODEL TEST_TRANS       PACKAGE TEST_TRANS      CONNECTED TO MODEL TEST_TRANS       PACKAGE CHD              ON UNIT   1016 AT TIME STEP      5, STRESS PERIOD      2

 HEAD WILL BE SAVED ON UNIT 1017 AT END OF TIME STEP    5, STRESS PERIOD    2


  VOLUME BUDGET FOR ENTIRE MODEL AT END OF TIME STEP    5, STRESS PERIOD   2
  ---------------------------------------------------------------------------------------------------

     CUMULATIVE VOLUME      L**3       RATES FOR THIS TIME STEP      L**3/T          PACKAGE NAME    
     ------------------                 ------------------------                     ----------------

           IN:                                      IN:
           ---                                      ---
              STO-SS =           0.0000                STO-SS =           0.0000     STORAGE         
              STO-SY =           0.0000                STO-SY =           0.0000     STORAGE         
                 RCH =        4528.7659                   RCH =         286.0273     RCHA            
                 CHD =           0.0000                   CHD =           0.0000     CHD             

            TOTAL IN =        4528.7659              TOTAL IN =         286.0273

          OUT:                                     OUT:
          ----                                     ----
              STO-SS =           1.2088                STO-SS =       7.2418E-02     STORAGE         
              STO-SY =         768.5339                STO-SY =          45.3606     STORAGE         
                 RCH =           0.0000                   RCH =           0.0000     RCHA            
                 CHD =        3759.0980                   CHD =         240.6042     CHD             

           TOTAL OUT =        4528.8407             TOTAL OUT =         286.0373

            IN - OUT =      -7.4793E-02              IN - OUT =      -1.0001E-02

 PERCENT DISCREPANCY =          -0.00     PERCENT DISCREPANCY =          -0.00




         TIME SUMMARY AT END OF TIME STEP    5 IN STRESS PERIOD    2
                    SECONDS     MINUTES      HOURS       DAYS        YEARS
                    -----------------------------------------------------------
   TIME STEP LENGTH 2.59200E+05  4320.0      72.000      3.0000     8.21355E-03
 STRESS PERIOD TIME 1.29600E+06  21600.      360.00      15.000     4.10678E-02
         TOTAL TIME 1.38240E+06  23040.      384.00      16.000     4.38056E-02
 UBDSV1 SAVING           STO-SS ON UNIT   1016 AT TIME STEP      6, STRESS PERIOD      2
 UBDSV1 SAVING           STO-SY ON UNIT   1016 AT TIME STEP      6, STRESS PERIOD      2
 UBDSV1 SAVING     FLOW-JA-FACE ON UNIT   1016 AT TIME STEP      6, STRESS PERIOD      2
 UBDSV06 SAVING              RCH IN MODEL TEST_TRANS       PACKAGE TEST_TRANS      CONNECTED TO MODEL TEST_TRANS       PACKAGE RCHA             ON UNIT   1016 AT TIME STEP      6, STRESS PERIOD      2
 UBDSV06 SAVING              CHD IN MODEL TEST_TRANS       PACKAGE TEST_TRANS      CONNECTED TO MODEL TEST_TRANS       PACKAGE CHD              ON UNIT   1016 AT TIME STEP      6, STRESS PERIOD      2

 HEAD WILL BE SAVED ON UNIT 1017 AT END OF TIME STEP    6, STRESS PERIOD    2


  VOLUME BUDGET FOR ENTIRE MODEL AT END OF TIME STEP    6, STRESS PERIOD   2
  ---------------------------------------------------------------------------------------------------

     CUMULATIVE VOLUME      L**3       RATES FOR THIS TIME STEP      L**3/T          PACKAGE NAME    
     ------------------                 ------------------------                     ----------------

           IN:                                      IN:
           ---                                      ---
              STO-SS =           0.0000                STO-SS =           0.0000     STORAGE         
              STO-SY =           0.0000                STO-SY =           0.0000     STORAGE         
                 RCH =        5386.8477                   RCH =         286.0273     RCHA            
                 CHD =           0.0000                   CHD =           0.0000     CHD             

            TOTAL IN =        5386.8477              TOTAL IN =         286.0273

          OUT:                                     OUT:
          ----                                     ----
              STO-SS =           1.4192                STO-SS =       7.0136E-02     STORAGE         
              STO-SY =         899.9234                STO-SY =          43.7965     STORAGE         
                 RCH =           0.0000                   RCH =           0.0000     RCHA            
                 CHD =        4485.6074                   CHD =         242.1698     CHD             

           TOTAL OUT =        5386.9500             TOTAL OUT =         286.0364

            IN - OUT =          -0.1022              IN - OUT =      -9.1462E-03

 PERCENT DISCREPANCY =          -0.00     PERCENT DISCREPANCY =          -0.00




         TIME SUMMARY AT END OF TIME STEP    6 IN STRESS PERIOD    2
                    SECONDS     MINUTES      HOURS       DAYS        YEARS
                    -----------------------------------------------------------
   TIME STEP LENGTH 2.59200E+05  4320.0      72.000      3.0000     8.21355E-03
 STRESS PERIOD TIME 1.55520E+06  25920.      432.00      18.000     4.92813E-02
         TOTAL TIME 1.64160E+06  27360.      456.00      19.000     5.20192E-02
 UBDSV1 SAVING           STO-SS ON UNIT   1016 AT TIME STEP      7, STRESS PERIOD      2
 UBDSV1 SAVING           STO-SY ON UNIT   1016 AT TIME STEP      7, STRESS PERIOD      2
 UBDSV1 SAVING     FLOW-JA-FACE ON UNIT   1016 AT TIME STEP      7, STRESS PERIOD      2
 UBDSV06 SAVING              RCH IN MODEL TEST_TRANS       PACKAGE TEST_TRANS      CONNECTED TO MODEL TEST_TRANS       PACKAGE RCHA             ON UNIT   1016 AT TIME STEP      7, STRESS PERIOD      2
 UBDSV06 SAVING              CHD IN MODEL TEST_TRANS       PACKAGE TEST_TRANS      CONNECTED TO MODEL TEST_TRANS       PACKAGE CHD              ON UNIT   1016 AT TIME STEP      7, STRESS PERIOD      2

 HEAD WILL BE SAVED ON UNIT 1017 AT END OF TIME STEP    7, STRESS PERIOD    2


  VOLUME BUDGET FOR ENTIRE MODEL AT END OF TIME STEP    7, STRESS PERIOD   2
  ---------------------------------------------------------------------------------------------------

     CUMULATIVE VOLUME      L**3       RATES FOR THIS TIME STEP      L**3/T          PACKAGE NAME    
     ------------------                 ------------------------                     ----------------

           IN:                                      IN:
           ---                                      ---
              STO-SS =           0.0000                STO-SS =           0.0000     STORAGE         
              STO-SY =           0.0000                STO-SY =           0.0000     STORAGE         
                 RCH =        6244.9296                   RCH =         286.0273     RCHA            
                 CHD =           0.0000                   CHD =           0.0000     CHD             

            TOTAL IN =        6244.9296              TOTAL IN =         286.0273

          OUT:                                     OUT:
          ----                                     ----
              STO-SS =           1.6236                STO-SS =       6.8137E-02     STORAGE         
              STO-SY =        1027.2529                STO-SY =          42.4432     STORAGE         
                 RCH =           0.0000                   RCH =           0.0000     RCHA            
                 CHD =        5216.1805                   CHD =         243.5244     CHD             

           TOTAL OUT =        6245.0571             TOTAL OUT =         286.0357

            IN - OUT =          -0.1275              IN - OUT =      -8.4228E-03

 PERCENT DISCREPANCY =          -0.00     PERCENT DISCREPANCY =          -0.00




         TIME SUMMARY AT END OF TIME STEP    7 IN STRESS PERIOD    2
                    SECONDS     MINUTES      HOURS       DAYS        YEARS
                    -----------------------------------------------------------
   TIME STEP LENGTH 2.59200E+05  4320.0      72.000      3.0000     8.21355E-03
 STRESS PERIOD TIME 1.81440E+06  30240.      504.00      21.000     5.74949E-02
         TOTAL TIME 1.90080E+06  31680.      528.00      22.000     6.02327E-02
 UBDSV1 SAVING           STO-SS ON UNIT   1016 AT TIME STEP      8, STRESS PERIOD      2
 UBDSV1 SAVING           STO-SY ON UNIT   1016 AT TIME STEP      8, STRESS PERIOD      2
 UBDSV1 SAVING     FLOW-JA-FACE ON UNIT   1016 AT TIME STEP      8, STRESS PERIOD      2
 UBDSV06 SAVING              RCH IN MODEL TEST_TRANS       PACKAGE TEST_TRANS      CONNECTED TO MODEL TEST_TRANS       PACKAGE RCHA             ON UNIT   1016 AT TIME STEP      8, STRESS PERIOD      2
 UBDSV06 SAVING              CHD IN MODEL TEST_TRANS       PACKAGE TEST_TRANS      CONNECTED TO MODEL TEST_TRANS       PACKAGE CHD              ON UNIT   1016 AT TIME STEP      8, STRESS PERIOD      2

 HEAD WILL BE SAVED ON UNIT 1017 AT END OF TIME STEP    8, STRESS PERIOD    2


  VOLUME BUDGET FOR ENTIRE MODEL AT END OF TIME STEP    8, STRESS PERIOD   2
  ---------------------------------------------------------------------------------------------------

     CUMULATIVE VOLUME      L**3       RATES FOR THIS TIME STEP      L**3/T          PACKAGE NAME    
     ------------------                 ------------------------                     ----------------

           IN:                                      IN:
           ---                                      ---
              STO-SS =           0.0000                STO-SS =           0.0000     STORAGE         
              STO-SY =           0.0000                STO-SY =           0.0000     STORAGE         
                 RCH =        7103.0115                   RCH =         286.0273     RCHA            
                 CHD =           0.0000                   CHD =           0.0000     CHD             

            TOTAL IN =        7103.0115              TOTAL IN =         286.0273

          OUT:                                     OUT:
          ----                                     ----
              STO-SS =           1.8226                STO-SS =       6.6336E-02     STORAGE         
              STO-SY =        1150.9627                STO-SY =          41.2366     STORAGE         
                 RCH =           0.0000                   RCH =           0.0000     RCHA            
                 CHD =        5950.3772                   CHD =         244.7322     CHD             

           TOTAL OUT =        7103.1624             TOTAL OUT =         286.0351

            IN - OUT =          -0.1510              IN - OUT =      -7.8266E-03

 PERCENT DISCREPANCY =          -0.00     PERCENT DISCREPANCY =          -0.00




         TIME SUMMARY AT END OF TIME STEP    8 IN STRESS PERIOD    2
                    SECONDS     MINUTES      HOURS       DAYS        YEARS
                    -----------------------------------------------------------
   TIME STEP LENGTH 2.59200E+05  4320.0      72.000      3.0000     8.21355E-03
 STRESS PERIOD TIME 2.07360E+06  34560.      576.00      24.000     6.57084E-02
         TOTAL TIME 2.16000E+06  36000.      600.00      25.000     6.84463E-02
 UBDSV1 SAVING           STO-SS ON UNIT   1016 AT TIME STEP      9, STRESS PERIOD      2
 UBDSV1 SAVING           STO-SY ON UNIT   1016 AT TIME STEP      9, STRESS PERIOD      2
 UBDSV1 SAVING     FLOW-JA-FACE ON UNIT   1016 AT TIME STEP      9, STRESS PERIOD      2
 UBDSV06 SAVING              RCH IN MODEL TEST_TRANS       PACKAGE TEST_TRANS      CONNECTED TO MODEL TEST_TRANS       PACKAGE RCHA             ON UNIT   1016 AT TIME STEP      9, STRESS PERIOD      2
 UBDSV06 SAVING              CHD IN MODEL TEST_TRANS       PACKAGE TEST_TRANS      CONNECTED TO MODEL TEST_TRANS       PACKAGE CHD              ON UNIT   1016 AT TIME STEP      9, STRESS PERIOD      2

 HEAD WILL BE SAVED ON UNIT 1017 AT END OF TIME STEP    9, STRESS PERIOD    2


  VOLUME BUDGET FOR ENTIRE MODEL AT END OF TIME STEP    9, STRESS PERIOD   2
  ---------------------------------------------------------------------------------------------------

     CUMULATIVE VOLUME      L**3       RATES FOR THIS TIME STEP      L**3/T          PACKAGE NAME    
     ------------------                 ------------------------                     ----------------

           IN:                                      IN:
           ---                                      ---
              STO-SS =           0.0000                STO-SS =           0.0000     STORAGE         
              STO-SY =           0.0000                STO-SY =           0.0000     STORAGE         
                 RCH =        7961.0933                   RCH =         286.0273     RCHA            
                 CHD =           0.0000                   CHD =           0.0000     CHD             

            TOTAL IN =        7961.0933              TOTAL IN =         286.0273

          OUT:                                     OUT:
          ----                                     ----
              STO-SS =           2.0167                STO-SS =       6.4684E-02     STORAGE         
              STO-SY =        1271.3781                STO-SY =          40.1385     STORAGE         
                 RCH =           0.0000                   RCH =           0.0000     RCHA            
                 CHD =        6687.8715                   CHD =         245.8315     CHD             

           TOTAL OUT =        7961.2663             TOTAL OUT =         286.0346

            IN - OUT =          -0.1730              IN - OUT =      -7.3344E-03

 PERCENT DISCREPANCY =          -0.00     PERCENT DISCREPANCY =          -0.00




         TIME SUMMARY AT END OF TIME STEP    9 IN STRESS PERIOD    2
                    SECONDS     MINUTES      HOURS       DAYS        YEARS
                    -----------------------------------------------------------
   TIME STEP LENGTH 2.59200E+05  4320.0      72.000      3.0000     8.21355E-03
 STRESS PERIOD TIME 2.33280E+06  38880.      648.00      27.000     7.39220E-02
         TOTAL TIME 2.41920E+06  40320.      672.00      28.000     7.66598E-02
 UBDSV1 SAVING           STO-SS ON UNIT   1016 AT TIME STEP     10, STRESS PERIOD      2
 UBDSV1 SAVING           STO-SY ON UNIT   1016 AT TIME STEP     10, STRESS PERIOD      2
 UBDSV1 SAVING     FLOW-JA-FACE ON UNIT   1016 AT TIME STEP     10, STRESS PERIOD      2
 UBDSV06 SAVING              RCH IN MODEL TEST_TRANS       PACKAGE TEST_TRANS      CONNECTED TO MODEL TEST_TRANS       PACKAGE RCHA             ON UNIT   1016 AT TIME STEP     10, STRESS PERIOD      2
 UBDSV06 SAVING              CHD IN MODEL TEST_TRANS       PACKAGE TEST_TRANS      CONNECTED TO MODEL TEST_TRANS       PACKAGE CHD              ON UNIT   1016 AT TIME STEP     10, STRESS PERIOD      2

 HEAD WILL BE SAVED ON UNIT 1017 AT END OF TIME STEP   10, STRESS PERIOD    2


  VOLUME BUDGET FOR ENTIRE MODEL AT END OF TIME STEP   10, STRESS PERIOD   2
  ---------------------------------------------------------------------------------------------------

     CUMULATIVE VOLUME      L**3       RATES FOR THIS TIME STEP      L**3/T          PACKAGE NAME    
     ------------------                 ------------------------                     ----------------

           IN:                                      IN:
           ---                                      ---
              STO-SS =           0.0000                STO-SS =           0.0000     STORAGE         
              STO-SY =           0.0000                STO-SY =           0.0000     STORAGE         
                 RCH =        8819.1752                   RCH =         286.0273     RCHA            
                 CHD =           0.0000                   CHD =           0.0000     CHD             

            TOTAL IN =        8819.1752              TOTAL IN =         286.0273

          OUT:                                     OUT:
          ----                                     ----
              STO-SS =           2.2061                STO-SS =       6.3146E-02     STORAGE         
              STO-SY =        1388.7514                STO-SY =          39.1244     STORAGE         
                 RCH =           0.0000                   RCH =           0.0000     RCHA            
                 CHD =        7428.4114                   CHD =         246.8466     CHD             

           TOTAL OUT =        8819.3690             TOTAL OUT =         286.0342

            IN - OUT =          -0.1938              IN - OUT =      -6.9234E-03

 PERCENT DISCREPANCY =          -0.00     PERCENT DISCREPANCY =          -0.00




         TIME SUMMARY AT END OF TIME STEP   10 IN STRESS PERIOD    2
                    SECONDS     MINUTES      HOURS       DAYS        YEARS
                    -----------------------------------------------------------
   TIME STEP LENGTH 2.59200E+05  4320.0      72.000      3.0000     8.21355E-03
 STRESS PERIOD TIME 2.59200E+06  43200.      720.00      30.000     8.21355E-02
         TOTAL TIME 2.67840E+06  44640.      744.00      31.000     8.48734E-02

 OUTPUT CONTROL FOR STRESS PERIOD 3 IS REPEATED USING SETTINGS FROM A PREVIOUS STRESS PERIOD.


 STRESS PERIOD 3 IS TRANSIENT


                 RECHARGE =  0.2465750E-02
 UBDSV1 SAVING           STO-SS ON UNIT   1016 AT TIME STEP      1, STRESS PERIOD      3
 UBDSV1 SAVING           STO-SY ON UNIT   1016 AT TIME STEP      1, STRESS PERIOD      3
 UBDSV1 SAVING     FLOW-JA-FACE ON UNIT   1016 AT TIME STEP      1, STRESS PERIOD      3
 UBDSV06 SAVING              RCH IN MODEL TEST_TRANS       PACKAGE TEST_TRANS      CONNECTED TO MODEL TEST_TRANS       PACKAGE RCHA             ON UNIT   1016 AT TIME STEP      1, STRESS PERIOD      3
 UBDSV06 SAVING              CHD IN MODEL TEST_TRANS       PACKAGE TEST_TRANS      CONNECTED TO MODEL TEST_TRANS       PACKAGE CHD              ON UNIT   1016 AT TIME STEP      1, STRESS PERIOD      3

 HEAD WILL BE SAVED ON UNIT 1017 AT END OF TIME STEP    1, STRESS PERIOD    3


  VOLUME BUDGET FOR ENTIRE MODEL AT END OF TIME STEP    1, STRESS PERIOD   3
  ---------------------------------------------------------------------------------------------------

     CUMULATIVE VOLUME      L**3       RATES FOR THIS TIME STEP      L**3/T          PACKAGE NAME    
     ------------------                 ------------------------                     ----------------

           IN:                                      IN:
           ---                                      ---
              STO-SS =           0.1024                STO-SS =       3.4135E-02     STORAGE         
              STO-SY =          62.2908                STO-SY =          20.7636     STORAGE         
                 RCH =        9462.7360                   RCH =         214.5203     RCHA            
                 CHD =           0.0000                   CHD =           0.0000     CHD             

            TOTAL IN =        9525.1292              TOTAL IN =         235.3180

          OUT:                                     OUT:
          ----                                     ----
              STO-SS =           2.3931                STO-SS =       6.2322E-02     STORAGE         
              STO-SY =        1525.0289                STO-SY =          45.4258     STORAGE         
                 RCH =           0.0000                   RCH =           0.0000     RCHA            
                 CHD =        7997.8856                   CHD =         189.8247     CHD             

           TOTAL OUT =        9525.3076             TOTAL OUT =         235.3129

            IN - OUT =          -0.1784              IN - OUT =       5.1266E-03

 PERCENT DISCREPANCY =          -0.00     PERCENT DISCREPANCY =           0.00




         TIME SUMMARY AT END OF TIME STEP    1 IN STRESS PERIOD    3
                    SECONDS     MINUTES      HOURS       DAYS        YEARS
                    -----------------------------------------------------------
   TIME STEP LENGTH 2.59200E+05  4320.0      72.000      3.0000     8.21355E-03
 STRESS PERIOD TIME 2.59200E+05  4320.0      72.000      3.0000     8.21355E-03
         TOTAL TIME 2.93760E+06  48960.      816.00      34.000     9.30869E-02
 UBDSV1 SAVING           STO-SS ON UNIT   1016 AT TIME STEP      2, STRESS PERIOD      3
 UBDSV1 SAVING           STO-SY ON UNIT   1016 AT TIME STEP      2, STRESS PERIOD      3
 UBDSV1 SAVING     FLOW-JA-FACE ON UNIT   1016 AT TIME STEP      2, STRESS PERIOD      3
 UBDSV06 SAVING              RCH IN MODEL TEST_TRANS       PACKAGE TEST_TRANS      CONNECTED TO MODEL TEST_TRANS       PACKAGE RCHA             ON UNIT   1016 AT TIME STEP      2, STRESS PERIOD      3
 UBDSV06 SAVING              CHD IN MODEL TEST_TRANS       PACKAGE TEST_TRANS      CONNECTED TO MODEL TEST_TRANS       PACKAGE CHD              ON UNIT   1016 AT TIME STEP      2, STRESS PERIOD      3

 HEAD WILL BE SAVED ON UNIT 1017 AT END OF TIME STEP    2, STRESS PERIOD    3


  VOLUME BUDGET FOR ENTIRE MODEL AT END OF TIME STEP    2, STRESS PERIOD   3
  ---------------------------------------------------------------------------------------------------

     CUMULATIVE VOLUME      L**3       RATES FOR THIS TIME STEP      L**3/T          PACKAGE NAME    
     ------------------                 ------------------------                     ----------------

           IN:                                      IN:
           ---                                      ---
              STO-SS =           0.1938                STO-SS =       3.0455E-02     STORAGE         
              STO-SY =         117.5488                STO-SY =          18.4193     STORAGE         
                 RCH =       10106.2967                   RCH =         214.5203     RCHA            
                 CHD =           0.0000                   CHD =           0.0000     CHD             

            TOTAL IN =       10224.0393              TOTAL IN =         232.9700

          OUT:                                     OUT:
          ----                                     ----
              STO-SS =           2.4946                STO-SS =       3.3835E-02     STORAGE         
              STO-SY =        1597.3767                STO-SY =          24.1159     STORAGE         
                 RCH =           0.0000                   RCH =           0.0000     RCHA            
                 CHD =        8624.3369                   CHD =         208.8171     CHD             

           TOTAL OUT =       10224.2082             TOTAL OUT =         232.9669

            IN - OUT =          -0.1689              IN - OUT =       3.1524E-03

 PERCENT DISCREPANCY =          -0.00     PERCENT DISCREPANCY =           0.00




         TIME SUMMARY AT END OF TIME STEP    2 IN STRESS PERIOD    3
                    SECONDS     MINUTES      HOURS       DAYS        YEARS
                    -----------------------------------------------------------
   TIME STEP LENGTH 2.59200E+05  4320.0      72.000      3.0000     8.21355E-03
 STRESS PERIOD TIME 5.18400E+05  8640.0      144.00      6.0000     1.64271E-02
         TOTAL TIME 3.19680E+06  53280.      888.00      37.000     0.10130    
 UBDSV1 SAVING           STO-SS ON UNIT   1016 AT TIME STEP      3, STRESS PERIOD      3
 UBDSV1 SAVING           STO-SY ON UNIT   1016 AT TIME STEP      3, STRESS PERIOD      3
 UBDSV1 SAVING     FLOW-JA-FACE ON UNIT   1016 AT TIME STEP      3, STRESS PERIOD      3
 UBDSV06 SAVING              RCH IN MODEL TEST_TRANS       PACKAGE TEST_TRANS      CONNECTED TO MODEL TEST_TRANS       PACKAGE RCHA             ON UNIT   1016 AT TIME STEP      3, STRESS PERIOD      3
 UBDSV06 SAVING              CHD IN MODEL TEST_TRANS       PACKAGE TEST_TRANS      CONNECTED TO MODEL TEST_TRANS       PACKAGE CHD              ON UNIT   1016 AT TIME STEP      3, STRESS PERIOD      3

 HEAD WILL BE SAVED ON UNIT 1017 AT END OF TIME STEP    3, STRESS PERIOD    3


  VOLUME BUDGET FOR ENTIRE MODEL AT END OF TIME STEP    3, STRESS PERIOD   3
  ---------------------------------------------------------------------------------------------------

     CUMULATIVE VOLUME      L**3       RATES FOR THIS TIME STEP      L**3/T          PACKAGE NAME    
     ------------------                 ------------------------                     ----------------

           IN:                                      IN:
           ---                                      ---
              STO-SS =           0.2773                STO-SS =       2.7829E-02     STORAGE         
              STO-SY =         167.8764                STO-SY =          16.7759     STORAGE         
                 RCH =       10749.8575                   RCH =         214.5203     RCHA            
                 CHD =           0.0000                   CHD =           0.0000     CHD             

            TOTAL IN =       10918.0111              TOTAL IN =         231.3240

          OUT:                                     OUT:
          ----                                     ----
              STO-SS =           2.5584                STO-SS =       2.1284E-02     STORAGE         
              STO-SY =        1642.2537                STO-SY =          14.9590     STORAGE         
                 RCH =           0.0000                   RCH =           0.0000     RCHA            
                 CHD =        9273.3660                   CHD =         216.3430     CHD             

           TOTAL OUT =       10918.1781             TOTAL OUT =         231.3233

            IN - OUT =          -0.1670              IN - OUT =       6.5074E-04

 PERCENT DISCREPANCY =          -0.00     PERCENT DISCREPANCY =           0.00




         TIME SUMMARY AT END OF TIME STEP    3 IN STRESS PERIOD    3
                    SECONDS     MINUTES      HOURS       DAYS        YEARS
                    -----------------------------------------------------------
   TIME STEP LENGTH 2.59200E+05  4320.0      72.000      3.0000     8.21355E-03
 STRESS PERIOD TIME 7.77600E+05  12960.      216.00      9.0000     2.46407E-02
         TOTAL TIME 3.45600E+06  57600.      960.00      40.000     0.10951    
 UBDSV1 SAVING           STO-SS ON UNIT   1016 AT TIME STEP      4, STRESS PERIOD      3
 UBDSV1 SAVING           STO-SY ON UNIT   1016 AT TIME STEP      4, STRESS PERIOD      3
 UBDSV1 SAVING     FLOW-JA-FACE ON UNIT   1016 AT TIME STEP      4, STRESS PERIOD      3
 UBDSV06 SAVING              RCH IN MODEL TEST_TRANS       PACKAGE TEST_TRANS      CONNECTED TO MODEL TEST_TRANS       PACKAGE RCHA             ON UNIT   1016 AT TIME STEP      4, STRESS PERIOD      3
 UBDSV06 SAVING              CHD IN MODEL TEST_TRANS       PACKAGE TEST_TRANS      CONNECTED TO MODEL TEST_TRANS       PACKAGE CHD              ON UNIT   1016 AT TIME STEP      4, STRESS PERIOD      3

 HEAD WILL BE SAVED ON UNIT 1017 AT END OF TIME STEP    4, STRESS PERIOD    3


  VOLUME BUDGET FOR ENTIRE MODEL AT END OF TIME STEP    4, STRESS PERIOD   3
  ---------------------------------------------------------------------------------------------------

     CUMULATIVE VOLUME      L**3       RATES FOR THIS TIME STEP      L**3/T          PACKAGE NAME    
     ------------------                 ------------------------                     ----------------

           IN:                                      IN:
           ---                                      ---
              STO-SS =           0.3545                STO-SS =       2.5763E-02     STORAGE         
              STO-SY =         214.3694                STO-SY =          15.4976     STORAGE         
                 RCH =       11393.4182                   RCH =         214.5203     RCHA            
                 CHD =           0.0000                   CHD =           0.0000     CHD             

            TOTAL IN =       11608.1421              TOTAL IN =         230.0437

          OUT:                                     OUT:
          ----                                     ----
              STO-SS =           2.6014                STO-SS =       1.4309E-02     STORAGE         
              STO-SY =        1672.1573                STO-SY =           9.9679     STORAGE         
                 RCH =           0.0000                   RCH =           0.0000     RCHA            
                 CHD =        9933.5538                   CHD =         220.0626     CHD             

           TOTAL OUT =       11608.3125             TOTAL OUT =         230.0448

            IN - OUT =          -0.1704              IN - OUT =      -1.1306E-03

 PERCENT DISCREPANCY =          -0.00     PERCENT DISCREPANCY =          -0.00




         TIME SUMMARY AT END OF TIME STEP    4 IN STRESS PERIOD    3
                    SECONDS     MINUTES      HOURS       DAYS        YEARS
                    -----------------------------------------------------------
   TIME STEP LENGTH 2.59200E+05  4320.0      72.000      3.0000     8.21355E-03
 STRESS PERIOD TIME 1.03680E+06  17280.      288.00      12.000     3.28542E-02
         TOTAL TIME 3.71520E+06  61920.      1032.0      43.000     0.11773    
 UBDSV1 SAVING           STO-SS ON UNIT   1016 AT TIME STEP      5, STRESS PERIOD      3
 UBDSV1 SAVING           STO-SY ON UNIT   1016 AT TIME STEP      5, STRESS PERIOD      3
 UBDSV1 SAVING     FLOW-JA-FACE ON UNIT   1016 AT TIME STEP      5, STRESS PERIOD      3
 UBDSV06 SAVING              RCH IN MODEL TEST_TRANS       PACKAGE TEST_TRANS      CONNECTED TO MODEL TEST_TRANS       PACKAGE RCHA             ON UNIT   1016 AT TIME STEP      5, STRESS PERIOD      3
 UBDSV06 SAVING              CHD IN MODEL TEST_TRANS       PACKAGE TEST_TRANS      CONNECTED TO MODEL TEST_TRANS       PACKAGE CHD              ON UNIT   1016 AT TIME STEP      5, STRESS PERIOD      3

 HEAD WILL BE SAVED ON UNIT 1017 AT END OF TIME STEP    5, STRESS PERIOD    3


  VOLUME BUDGET FOR ENTIRE MODEL AT END OF TIME STEP    5, STRESS PERIOD   3
  ---------------------------------------------------------------------------------------------------

     CUMULATIVE VOLUME      L**3       RATES FOR THIS TIME STEP      L**3/T          PACKAGE NAME    
     ------------------                 ------------------------                     ----------------

           IN:                                      IN:
           ---                                      ---
              STO-SS =           0.4271                STO-SS =       2.4182E-02     STORAGE         
              STO-SY =         257.9598                STO-SY =          14.5301     STORAGE         
                 RCH =       12036.9790                   RCH =         214.5203     RCHA            
                 CHD =           0.0000                   CHD =           0.0000     CHD             

            TOTAL IN =       12295.3659              TOTAL IN =         229.0746

          OUT:                                     OUT:
          ----                                     ----
              STO-SS =           2.6312                STO-SS =       9.9394E-03     STORAGE         
              STO-SY =        1692.8078                STO-SY =           6.8835     STORAGE         
                 RCH =           0.0000                   RCH =           0.0000     RCHA            
                 CHD =       10600.1062                   CHD =         222.1841     CHD             

           TOTAL OUT =       12295.5452             TOTAL OUT =         229.0776

            IN - OUT =          -0.1793              IN - OUT =      -2.9792E-03

 PERCENT DISCREPANCY =          -0.00     PERCENT DISCREPANCY =          -0.00




         TIME SUMMARY AT END OF TIME STEP    5 IN STRESS PERIOD    3
                    SECONDS     MINUTES      HOURS       DAYS        YEARS
                    -----------------------------------------------------------
   TIME STEP LENGTH 2.59200E+05  4320.0      72.000      3.0000     8.21355E-03
 STRESS PERIOD TIME 1.29600E+06  21600.      360.00      15.000     4.10678E-02
         TOTAL TIME 3.97440E+06  66240.      1104.0      46.000     0.12594    
 UBDSV1 SAVING           STO-SS ON UNIT   1016 AT TIME STEP      6, STRESS PERIOD      3
 UBDSV1 SAVING           STO-SY ON UNIT   1016 AT TIME STEP      6, STRESS PERIOD      3
 UBDSV1 SAVING     FLOW-JA-FACE ON UNIT   1016 AT TIME STEP      6, STRESS PERIOD      3
 UBDSV06 SAVING              RCH IN MODEL TEST_TRANS       PACKAGE TEST_TRANS      CONNECTED TO MODEL TEST_TRANS       PACKAGE RCHA             ON UNIT   1016 AT TIME STEP      6, STRESS PERIOD      3
 UBDSV06 SAVING              CHD IN MODEL TEST_TRANS       PACKAGE TEST_TRANS      CONNECTED TO MODEL TEST_TRANS       PACKAGE CHD              ON UNIT   1016 AT TIME STEP      6, STRESS PERIOD      3

 HEAD WILL BE SAVED ON UNIT 1017 AT END OF TIME STEP    6, STRESS PERIOD    3


  VOLUME BUDGET FOR ENTIRE MODEL AT END OF TIME STEP    6, STRESS PERIOD   3
  ---------------------------------------------------------------------------------------------------

     CUMULATIVE VOLUME      L**3       RATES FOR THIS TIME STEP      L**3/T          PACKAGE NAME    
     ------------------                 ------------------------                     ----------------

           IN:                                      IN:
           ---                                      ---
              STO-SS =           0.4957                STO-SS =       2.2877E-02     STORAGE         
              STO-SY =         299.1713                STO-SY =          13.7372     STORAGE         
                 RCH =       12680.5397                   RCH =         214.5203     RCHA            
                 CHD =           0.0000                   CHD =           0.0000     CHD             

            TOTAL IN =       12980.2068              TOTAL IN =         228.2803

          OUT:                                     OUT:
          ----                                     ----
              STO-SS =           2.6519                STO-SS =       6.9169E-03     STORAGE         
              STO-SY =        1707.1321                STO-SY =           4.7748     STORAGE         
                 RCH =           0.0000                   RCH =           0.0000     RCHA            
                 CHD =       11270.6080                   CHD =         223.5006     CHD             

           TOTAL OUT =       12980.3920             TOTAL OUT =         228.2823

            IN - OUT =          -0.1853              IN - OUT =      -1.9865E-03

 PERCENT DISCREPANCY =          -0.00     PERCENT DISCREPANCY =          -0.00




         TIME SUMMARY AT END OF TIME STEP    6 IN STRESS PERIOD    3
                    SECONDS     MINUTES      HOURS       DAYS        YEARS
                    -----------------------------------------------------------
   TIME STEP LENGTH 2.59200E+05  4320.0      72.000      3.0000     8.21355E-03
 STRESS PERIOD TIME 1.55520E+06  25920.      432.00      18.000     4.92813E-02
         TOTAL TIME 4.23360E+06  70560.      1176.0      49.000     0.13415    
 UBDSV1 SAVING           STO-SS ON UNIT   1016 AT TIME STEP      7, STRESS PERIOD      3
 UBDSV1 SAVING           STO-SY ON UNIT   1016 AT TIME STEP      7, STRESS PERIOD      3
 UBDSV1 SAVING     FLOW-JA-FACE ON UNIT   1016 AT TIME STEP      7, STRESS PERIOD      3
 UBDSV06 SAVING              RCH IN MODEL TEST_TRANS       PACKAGE TEST_TRANS      CONNECTED TO MODEL TEST_TRANS       PACKAGE RCHA             ON UNIT   1016 AT TIME STEP      7, STRESS PERIOD      3
 UBDSV06 SAVING              CHD IN MODEL TEST_TRANS       PACKAGE TEST_TRANS      CONNECTED TO MODEL TEST_TRANS       PACKAGE CHD              ON UNIT   1016 AT TIME STEP      7, STRESS PERIOD      3

 HEAD WILL BE SAVED ON UNIT 1017 AT END OF TIME STEP    7, STRESS PERIOD    3


  VOLUME BUDGET FOR ENTIRE MODEL AT END OF TIME STEP    7, STRESS PERIOD   3
  ---------------------------------------------------------------------------------------------------

     CUMULATIVE VOLUME      L**3       RATES FOR THIS TIME STEP      L**3/T          PACKAGE NAME    
     ------------------                 ------------------------                     ----------------

           IN:                                      IN:
           ---                                      ---
              STO-SS =           0.5611                STO-SS =       2.1805E-02     STORAGE         
              STO-SY =         338.4434                STO-SY =          13.0907     STORAGE         
                 RCH =       13324.1005                   RCH =         214.5203     RCHA            
                 CHD =           0.0000                   CHD =           0.0000     CHD             

            TOTAL IN =       13663.1050              TOTAL IN =         227.6327

          OUT:                                     OUT:
          ----                                     ----
              STO-SS =           2.6662                STO-SS =       4.7443E-03     STORAGE         
              STO-SY =        1716.9462                STO-SY =           3.2714     STORAGE         
                 RCH =           0.0000                   RCH =           0.0000     RCHA            
                 CHD =       11943.6816                   CHD =         224.3579     CHD             

           TOTAL OUT =       13663.2940             TOTAL OUT =         227.6340

            IN - OUT =          -0.1890              IN - OUT =      -1.2593E-03

 PERCENT DISCREPANCY =          -0.00     PERCENT DISCREPANCY =          -0.00




         TIME SUMMARY AT END OF TIME STEP    7 IN STRESS PERIOD    3
                    SECONDS     MINUTES      HOURS       DAYS        YEARS
                    -----------------------------------------------------------
   TIME STEP LENGTH 2.59200E+05  4320.0      72.000      3.0000     8.21355E-03
 STRESS PERIOD TIME 1.81440E+06  30240.      504.00      21.000     5.74949E-02
         TOTAL TIME 4.49280E+06  74880.      1248.0      52.000     0.14237    
 UBDSV1 SAVING           STO-SS ON UNIT   1016 AT TIME STEP      8, STRESS PERIOD      3
 UBDSV1 SAVING           STO-SY ON UNIT   1016 AT TIME STEP      8, STRESS PERIOD      3
 UBDSV1 SAVING     FLOW-JA-FACE ON UNIT   1016 AT TIME STEP      8, STRESS PERIOD      3
 UBDSV06 SAVING              RCH IN MODEL TEST_TRANS       PACKAGE TEST_TRANS      CONNECTED TO MODEL TEST_TRANS       PACKAGE RCHA             ON UNIT   1016 AT TIME STEP      8, STRESS PERIOD      3
 UBDSV06 SAVING              CHD IN MODEL TEST_TRANS       PACKAGE TEST_TRANS      CONNECTED TO MODEL TEST_TRANS       PACKAGE CHD              ON UNIT   1016 AT TIME STEP      8, STRESS PERIOD      3

 HEAD WILL BE SAVED ON UNIT 1017 AT END OF TIME STEP    8, STRESS PERIOD    3


  VOLUME BUDGET FOR ENTIRE MODEL AT END OF TIME STEP    8, STRESS PERIOD   3
  ---------------------------------------------------------------------------------------------------

     CUMULATIVE VOLUME      L**3       RATES FOR THIS TIME STEP      L**3/T          PACKAGE NAME    
     ------------------                 ------------------------                     ----------------

           IN:                                      IN:
           ---                                      ---
              STO-SS =           0.6239                STO-SS =       2.0935E-02     STORAGE         
              STO-SY =         376.1534                STO-SY =          12.5700     STORAGE         
                 RCH =       13967.6612                   RCH =         214.5203     RCHA            
                 CHD =           0.0000                   CHD =           0.0000     CHD             

            TOTAL IN =       14344.4385              TOTAL IN =         227.1112

          OUT:                                     OUT:
          ----                                     ----
              STO-SS =           2.6756                STO-SS =       3.1589E-03     STORAGE         
              STO-SY =        1723.4858                STO-SY =           2.1799     STORAGE         
                 RCH =           0.0000                   RCH =           0.0000     RCHA            
                 CHD =       12618.4705                   CHD =         224.9296     CHD             

           TOTAL OUT =       14344.6319             TOTAL OUT =         227.1126

            IN - OUT =          -0.1934              IN - OUT =      -1.4615E-03

 PERCENT DISCREPANCY =          -0.00     PERCENT DISCREPANCY =          -0.00




         TIME SUMMARY AT END OF TIME STEP    8 IN STRESS PERIOD    3
                    SECONDS     MINUTES      HOURS       DAYS        YEARS
                    -----------------------------------------------------------
   TIME STEP LENGTH 2.59200E+05  4320.0      72.000      3.0000     8.21355E-03
 STRESS PERIOD TIME 2.07360E+06  34560.      576.00      24.000     6.57084E-02
         TOTAL TIME 4.75200E+06  79200.      1320.0      55.000     0.15058    
 UBDSV1 SAVING           STO-SS ON UNIT   1016 AT TIME STEP      9, STRESS PERIOD      3
 UBDSV1 SAVING           STO-SY ON UNIT   1016 AT TIME STEP      9, STRESS PERIOD      3
 UBDSV1 SAVING     FLOW-JA-FACE ON UNIT   1016 AT TIME STEP      9, STRESS PERIOD      3
 UBDSV06 SAVING              RCH IN MODEL TEST_TRANS       PACKAGE TEST_TRANS      CONNECTED TO MODEL TEST_TRANS       PACKAGE RCHA             ON UNIT   1016 AT TIME STEP      9, STRESS PERIOD      3
 UBDSV06 SAVING              CHD IN MODEL TEST_TRANS       PACKAGE TEST_TRANS      CONNECTED TO MODEL TEST_TRANS       PACKAGE CHD              ON UNIT   1016 AT TIME STEP      9, STRESS PERIOD      3

 HEAD WILL BE SAVED ON UNIT 1017 AT END OF TIME STEP    9, STRESS PERIOD    3


  VOLUME BUDGET FOR ENTIRE MODEL AT END OF TIME STEP    9, STRESS PERIOD   3
  ---------------------------------------------------------------------------------------------------

     CUMULATIVE VOLUME      L**3       RATES FOR THIS TIME STEP      L**3/T          PACKAGE NAME    
     ------------------                 ------------------------                     ----------------

           IN:                                      IN:
           ---                                      ---
              STO-SS =           0.6847                STO-SS =       2.0256E-02     STORAGE         
              STO-SY =         412.6582                STO-SY =          12.1683     STORAGE         
                 RCH =       14611.2220                   RCH =         214.5203     RCHA            
                 CHD =           0.0000                   CHD =           0.0000     CHD             

            TOTAL IN =       15024.5649              TOTAL IN =         226.7088

          OUT:                                     OUT:
          ----                                     ----
              STO-SS =           2.6817                STO-SS =       2.0329E-03     STORAGE         
              STO-SY =        1727.7038                STO-SY =           1.4060     STORAGE         
                 RCH =           0.0000                   RCH =           0.0000     RCHA            
                 CHD =       13294.4177                   CHD =         225.3158     CHD             

           TOTAL OUT =       15024.8032             TOTAL OUT =         226.7238

            IN - OUT =          -0.2383              IN - OUT =      -1.4976E-02

 PERCENT DISCREPANCY =          -0.00     PERCENT DISCREPANCY =          -0.01




         TIME SUMMARY AT END OF TIME STEP    9 IN STRESS PERIOD    3
                    SECONDS     MINUTES      HOURS       DAYS        YEARS
                    -----------------------------------------------------------
   TIME STEP LENGTH 2.59200E+05  4320.0      72.000      3.0000     8.21355E-03
 STRESS PERIOD TIME 2.33280E+06  38880.      648.00      27.000     7.39220E-02
         TOTAL TIME 5.01120E+06  83520.      1392.0      58.000     0.15880    
 UBDSV1 SAVING           STO-SS ON UNIT   1016 AT TIME STEP     10, STRESS PERIOD      3
 UBDSV1 SAVING           STO-SY ON UNIT   1016 AT TIME STEP     10, STRESS PERIOD      3
 UBDSV1 SAVING     FLOW-JA-FACE ON UNIT   1016 AT TIME STEP     10, STRESS PERIOD      3
 UBDSV06 SAVING              RCH IN MODEL TEST_TRANS       PACKAGE TEST_TRANS      CONNECTED TO MODEL TEST_TRANS       PACKAGE RCHA             ON UNIT   1016 AT TIME STEP     10, STRESS PERIOD      3
 UBDSV06 SAVING              CHD IN MODEL TEST_TRANS       PACKAGE TEST_TRANS      CONNECTED TO MODEL TEST_TRANS       PACKAGE CHD              ON UNIT   1016 AT TIME STEP     10, STRESS PERIOD      3

 HEAD WILL BE SAVED ON UNIT 1017 AT END OF TIME STEP   10, STRESS PERIOD    3


  VOLUME BUDGET FOR ENTIRE MODEL AT END OF TIME STEP   10, STRESS PERIOD   3
  ---------------------------------------------------------------------------------------------------

     CUMULATIVE VOLUME      L**3       RATES FOR THIS TIME STEP      L**3/T          PACKAGE NAME    
     ------------------                 ------------------------                     ----------------

           IN:                                      IN:
           ---                                      ---
              STO-SS =           0.7438                STO-SS =       1.9709E-02     STORAGE         
              STO-SY =         448.2057                STO-SY =          11.8492     STORAGE         
                 RCH =       15254.7827                   RCH =         214.5203     RCHA            
                 CHD =           0.0000                   CHD =           0.0000     CHD             

            TOTAL IN =       15703.7323              TOTAL IN =         226.3891

          OUT:                                     OUT:
          ----                                     ----
              STO-SS =           2.6853                STO-SS =       1.1905E-03     STORAGE         
              STO-SY =        1730.1847                STO-SY =           0.8270     STORAGE         
                 RCH =           0.0000                   RCH =           0.0000     RCHA            
                 CHD =       13971.1248                   CHD =         225.5690     CHD             

           TOTAL OUT =       15703.9947             TOTAL OUT =         226.3972

            IN - OUT =          -0.2625              IN - OUT =      -8.0425E-03

 PERCENT DISCREPANCY =          -0.00     PERCENT DISCREPANCY =          -0.00




         TIME SUMMARY AT END OF TIME STEP   10 IN STRESS PERIOD    3
                    SECONDS     MINUTES      HOURS       DAYS        YEARS
                    -----------------------------------------------------------
   TIME STEP LENGTH 2.59200E+05  4320.0      72.000      3.0000     8.21355E-03
 STRESS PERIOD TIME 2.59200E+06  43200.      720.00      30.000     8.21355E-02
         TOTAL TIME 5.27040E+06  87840.      1464.0      61.000     0.16701    

 OUTPUT CONTROL FOR STRESS PERIOD 4 IS REPEATED USING SETTINGS FROM A PREVIOUS STRESS PERIOD.


 STRESS PERIOD 4 IS TRANSIENT


                 RECHARGE =  0.1643840E-02
 UBDSV1 SAVING           STO-SS ON UNIT   1016 AT TIME STEP      1, STRESS PERIOD      4
 UBDSV1 SAVING           STO-SY ON UNIT   1016 AT TIME STEP      1, STRESS PERIOD      4
 UBDSV1 SAVING     FLOW-JA-FACE ON UNIT   1016 AT TIME STEP      1, STRESS PERIOD      4
 UBDSV06 SAVING              RCH IN MODEL TEST_TRANS       PACKAGE TEST_TRANS      CONNECTED TO MODEL TEST_TRANS       PACKAGE RCHA             ON UNIT   1016 AT TIME STEP      1, STRESS PERIOD      4
 UBDSV06 SAVING              CHD IN MODEL TEST_TRANS       PACKAGE TEST_TRANS      CONNECTED TO MODEL TEST_TRANS       PACKAGE CHD              ON UNIT   1016 AT TIME STEP      1, STRESS PERIOD      4

 HEAD WILL BE SAVED ON UNIT 1017 AT END OF TIME STEP    1, STRESS PERIOD    4


  VOLUME BUDGET FOR ENTIRE MODEL AT END OF TIME STEP    1, STRESS PERIOD   4
  ---------------------------------------------------------------------------------------------------

     CUMULATIVE VOLUME      L**3       RATES FOR THIS TIME STEP      L**3/T          PACKAGE NAME    
     ------------------                 ------------------------                     ----------------

           IN:                                      IN:
           ---                                      ---
              STO-SS =           1.0617                STO-SS =           0.1059     STORAGE         
              STO-SY =         641.5006                STO-SY =          64.4316     STORAGE         
                 RCH =       15683.8250                   RCH =         143.0141     RCHA            
                 CHD =           0.0000                   CHD =           0.0000     CHD             

            TOTAL IN =       16326.3872              TOTAL IN =         207.5517

          OUT:                                     OUT:
          ----                                     ----
              STO-SS =           2.9753                STO-SS =       9.6661E-02     STORAGE         
              STO-SY =        1938.6112                STO-SY =          69.4755     STORAGE         
                 RCH =           0.0000                   RCH =           0.0000     RCHA            
                 CHD =       14385.0434                   CHD =         137.9729     CHD             

           TOTAL OUT =       16326.6299             TOTAL OUT =         207.5451

            IN - OUT =          -0.2427              IN - OUT =       6.6013E-03

 PERCENT DISCREPANCY =          -0.00     PERCENT DISCREPANCY =           0.00




         TIME SUMMARY AT END OF TIME STEP    1 IN STRESS PERIOD    4
                    SECONDS     MINUTES      HOURS       DAYS        YEARS
                    -----------------------------------------------------------
   TIME STEP LENGTH 2.59200E+05  4320.0      72.000      3.0000     8.21355E-03
 STRESS PERIOD TIME 2.59200E+05  4320.0      72.000      3.0000     8.21355E-03
         TOTAL TIME 5.52960E+06  92160.      1536.0      64.000     0.17522    
 UBDSV1 SAVING           STO-SS ON UNIT   1016 AT TIME STEP      2, STRESS PERIOD      4
 UBDSV1 SAVING           STO-SY ON UNIT   1016 AT TIME STEP      2, STRESS PERIOD      4
 UBDSV1 SAVING     FLOW-JA-FACE ON UNIT   1016 AT TIME STEP      2, STRESS PERIOD      4
 UBDSV06 SAVING              RCH IN MODEL TEST_TRANS       PACKAGE TEST_TRANS      CONNECTED TO MODEL TEST_TRANS       PACKAGE RCHA             ON UNIT   1016 AT TIME STEP      2, STRESS PERIOD      4
 UBDSV06 SAVING              CHD IN MODEL TEST_TRANS       PACKAGE TEST_TRANS      CONNECTED TO MODEL TEST_TRANS       PACKAGE CHD              ON UNIT   1016 AT TIME STEP      2, STRESS PERIOD      4

 HEAD WILL BE SAVED ON UNIT 1017 AT END OF TIME STEP    2, STRESS PERIOD    4


  VOLUME BUDGET FOR ENTIRE MODEL AT END OF TIME STEP    2, STRESS PERIOD   4
  ---------------------------------------------------------------------------------------------------

     CUMULATIVE VOLUME      L**3       RATES FOR THIS TIME STEP      L**3/T          PACKAGE NAME    
     ------------------                 ------------------------                     ----------------

           IN:                                      IN:
           ---                                      ---
              STO-SS =           1.3551                STO-SS =       9.7793E-02     STORAGE         
              STO-SY =         819.3916                STO-SY =          59.2970     STORAGE         
                 RCH =       16112.8672                   RCH =         143.0141     RCHA            
                 CHD =           0.0000                   CHD =           0.0000     CHD             

            TOTAL IN =       16933.6138              TOTAL IN =         202.4089

          OUT:                                     OUT:
          ----                                     ----
              STO-SS =           3.1225                STO-SS =       4.9080E-02     STORAGE         
              STO-SY =        2042.3638                STO-SY =          34.5842     STORAGE         
                 RCH =           0.0000                   RCH =           0.0000     RCHA            
                 CHD =       14888.3625                   CHD =         167.7730     CHD             

           TOTAL OUT =       16933.8488             TOTAL OUT =         202.4063

            IN - OUT =          -0.2349              IN - OUT =       2.5731E-03

 PERCENT DISCREPANCY =          -0.00     PERCENT DISCREPANCY =           0.00




         TIME SUMMARY AT END OF TIME STEP    2 IN STRESS PERIOD    4
                    SECONDS     MINUTES      HOURS       DAYS        YEARS
                    -----------------------------------------------------------
   TIME STEP LENGTH 2.59200E+05  4320.0      72.000      3.0000     8.21355E-03
 STRESS PERIOD TIME 5.18400E+05  8640.0      144.00      6.0000     1.64271E-02
         TOTAL TIME 5.78880E+06  96480.      1608.0      67.000     0.18344    
 UBDSV1 SAVING           STO-SS ON UNIT   1016 AT TIME STEP      3, STRESS PERIOD      4
 UBDSV1 SAVING           STO-SY ON UNIT   1016 AT TIME STEP      3, STRESS PERIOD      4
 UBDSV1 SAVING     FLOW-JA-FACE ON UNIT   1016 AT TIME STEP      3, STRESS PERIOD      4
 UBDSV06 SAVING              RCH IN MODEL TEST_TRANS       PACKAGE TEST_TRANS      CONNECTED TO MODEL TEST_TRANS       PACKAGE RCHA             ON UNIT   1016 AT TIME STEP      3, STRESS PERIOD      4
 UBDSV06 SAVING              CHD IN MODEL TEST_TRANS       PACKAGE TEST_TRANS      CONNECTED TO MODEL TEST_TRANS       PACKAGE CHD              ON UNIT   1016 AT TIME STEP      3, STRESS PERIOD      4

 HEAD WILL BE SAVED ON UNIT 1017 AT END OF TIME STEP    3, STRESS PERIOD    4


  VOLUME BUDGET FOR ENTIRE MODEL AT END OF TIME STEP    3, STRESS PERIOD   4
  ---------------------------------------------------------------------------------------------------

     CUMULATIVE VOLUME      L**3       RATES FOR THIS TIME STEP      L**3/T          PACKAGE NAME    
     ------------------                 ------------------------                     ----------------

           IN:                                      IN:
           ---                                      ---
              STO-SS =           1.6310                STO-SS =       9.1971E-02     STORAGE         
              STO-SY =         986.4933                STO-SY =          55.7006     STORAGE         
                 RCH =       16541.9094                   RCH =         143.0141     RCHA            
                 CHD =           0.0000                   CHD =           0.0000     CHD             

            TOTAL IN =       17530.0337              TOTAL IN =         198.8066

          OUT:                                     OUT:
          ----                                     ----
              STO-SS =           3.2079                STO-SS =       2.8440E-02     STORAGE         
              STO-SY =        2101.8451                STO-SY =          19.8271     STORAGE         
                 RCH =           0.0000                   RCH =           0.0000     RCHA            
                 CHD =       15425.2089                   CHD =         178.9488     CHD             

           TOTAL OUT =       17530.2618             TOTAL OUT =         198.8044

            IN - OUT =          -0.2282              IN - OUT =       2.2611E-03

 PERCENT DISCREPANCY =          -0.00     PERCENT DISCREPANCY =           0.00




         TIME SUMMARY AT END OF TIME STEP    3 IN STRESS PERIOD    4
                    SECONDS     MINUTES      HOURS       DAYS        YEARS
                    -----------------------------------------------------------
   TIME STEP LENGTH 2.59200E+05  4320.0      72.000      3.0000     8.21355E-03
 STRESS PERIOD TIME 7.77600E+05  12960.      216.00      9.0000     2.46407E-02
         TOTAL TIME 6.04800E+06 1.00800E+05  1680.0      70.000     0.19165    
 UBDSV1 SAVING           STO-SS ON UNIT   1016 AT TIME STEP      4, STRESS PERIOD      4
 UBDSV1 SAVING           STO-SY ON UNIT   1016 AT TIME STEP      4, STRESS PERIOD      4
 UBDSV1 SAVING     FLOW-JA-FACE ON UNIT   1016 AT TIME STEP      4, STRESS PERIOD      4
 UBDSV06 SAVING              RCH IN MODEL TEST_TRANS       PACKAGE TEST_TRANS      CONNECTED TO MODEL TEST_TRANS       PACKAGE RCHA             ON UNIT   1016 AT TIME STEP      4, STRESS PERIOD      4
 UBDSV06 SAVING              CHD IN MODEL TEST_TRANS       PACKAGE TEST_TRANS      CONNECTED TO MODEL TEST_TRANS       PACKAGE CHD              ON UNIT   1016 AT TIME STEP      4, STRESS PERIOD      4

 HEAD WILL BE SAVED ON UNIT 1017 AT END OF TIME STEP    4, STRESS PERIOD    4


  VOLUME BUDGET FOR ENTIRE MODEL AT END OF TIME STEP    4, STRESS PERIOD   4
  ---------------------------------------------------------------------------------------------------

     CUMULATIVE VOLUME      L**3       RATES FOR THIS TIME STEP      L**3/T          PACKAGE NAME    
     ------------------                 ------------------------                     ----------------

           IN:                                      IN:
           ---                                      ---
              STO-SS =           1.8932                STO-SS =       8.7423E-02     STORAGE         
              STO-SY =        1145.2755                STO-SY =          52.9274     STORAGE         
                 RCH =       16970.9517                   RCH =         143.0141     RCHA            
                 CHD =           0.0000                   CHD =           0.0000     CHD             

            TOTAL IN =       18118.1204              TOTAL IN =         196.0289

          OUT:                                     OUT:
          ----                                     ----
              STO-SS =           3.2590                STO-SS =       1.7053E-02     STORAGE         
              STO-SY =        2137.3176                STO-SY =          11.8242     STORAGE         
                 RCH =           0.0000                   RCH =           0.0000     RCHA            
                 CHD =       15977.7701                   CHD =         184.1871     CHD             

           TOTAL OUT =       18118.3467             TOTAL OUT =         196.0283

            IN - OUT =          -0.2263              IN - OUT =       6.2765E-04

 PERCENT DISCREPANCY =          -0.00     PERCENT DISCREPANCY =           0.00




         TIME SUMMARY AT END OF TIME STEP    4 IN STRESS PERIOD    4
                    SECONDS     MINUTES      HOURS       DAYS        YEARS
                    -----------------------------------------------------------
   TIME STEP LENGTH 2.59200E+05  4320.0      72.000      3.0000     8.21355E-03
 STRESS PERIOD TIME 1.03680E+06  17280.      288.00      12.000     3.28542E-02
         TOTAL TIME 6.30720E+06 1.05120E+05  1752.0      73.000     0.19986    
 UBDSV1 SAVING           STO-SS ON UNIT   1016 AT TIME STEP      5, STRESS PERIOD      4
 UBDSV1 SAVING           STO-SY ON UNIT   1016 AT TIME STEP      5, STRESS PERIOD      4
 UBDSV1 SAVING     FLOW-JA-FACE ON UNIT   1016 AT TIME STEP      5, STRESS PERIOD      4
 UBDSV06 SAVING              RCH IN MODEL TEST_TRANS       PACKAGE TEST_TRANS      CONNECTED TO MODEL TEST_TRANS       PACKAGE RCHA             ON UNIT   1016 AT TIME STEP      5, STRESS PERIOD      4
 UBDSV06 SAVING              CHD IN MODEL TEST_TRANS       PACKAGE TEST_TRANS      CONNECTED TO MODEL TEST_TRANS       PACKAGE CHD              ON UNIT   1016 AT TIME STEP      5, STRESS PERIOD      4

 HEAD WILL BE SAVED ON UNIT 1017 AT END OF TIME STEP    5, STRESS PERIOD    4


  VOLUME BUDGET FOR ENTIRE MODEL AT END OF TIME STEP    5, STRESS PERIOD   4
  ---------------------------------------------------------------------------------------------------

     CUMULATIVE VOLUME      L**3       RATES FOR THIS TIME STEP      L**3/T          PACKAGE NAME    
     ------------------                 ------------------------                     ----------------

           IN:                                      IN:
           ---                                      ---
              STO-SS =           2.1449                STO-SS =       8.3884E-02     STORAGE         
              STO-SY =        1297.6707                STO-SY =          50.7984     STORAGE         
                 RCH =       17399.9939                   RCH =         143.0141     RCHA            
                 CHD =           0.0000                   CHD =           0.0000     CHD             

            TOTAL IN =       18699.8095              TOTAL IN =         193.8964

          OUT:                                     OUT:
          ----                                     ----
              STO-SS =           3.2890                STO-SS =       9.9991E-03     STORAGE         
              STO-SY =        2158.0784                STO-SY =           6.9203     STORAGE         
                 RCH =           0.0000                   RCH =           0.0000     RCHA            
                 CHD =       16538.6669                   CHD =         186.9656     CHD             

           TOTAL OUT =       18700.0343             TOTAL OUT =         193.8959

            IN - OUT =          -0.2249              IN - OUT =       4.7362E-04

 PERCENT DISCREPANCY =          -0.00     PERCENT DISCREPANCY =           0.00




         TIME SUMMARY AT END OF TIME STEP    5 IN STRESS PERIOD    4
                    SECONDS     MINUTES      HOURS       DAYS        YEARS
                    -----------------------------------------------------------
   TIME STEP LENGTH 2.59200E+05  4320.0      72.000      3.0000     8.21355E-03
 STRESS PERIOD TIME 1.29600E+06  21600.      360.00      15.000     4.10678E-02
         TOTAL TIME 6.56640E+06 1.09440E+05  1824.0      76.000     0.20808    
 UBDSV1 SAVING           STO-SS ON UNIT   1016 AT TIME STEP      6, STRESS PERIOD      4
 UBDSV1 SAVING           STO-SY ON UNIT   1016 AT TIME STEP      6, STRESS PERIOD      4
 UBDSV1 SAVING     FLOW-JA-FACE ON UNIT   1016 AT TIME STEP      6, STRESS PERIOD      4
 UBDSV06 SAVING              RCH IN MODEL TEST_TRANS       PACKAGE TEST_TRANS      CONNECTED TO MODEL TEST_TRANS       PACKAGE RCHA             ON UNIT   1016 AT TIME STEP      6, STRESS PERIOD      4
 UBDSV06 SAVING              CHD IN MODEL TEST_TRANS       PACKAGE TEST_TRANS      CONNECTED TO MODEL TEST_TRANS       PACKAGE CHD              ON UNIT   1016 AT TIME STEP      6, STRESS PERIOD      4

 HEAD WILL BE SAVED ON UNIT 1017 AT END OF TIME STEP    6, STRESS PERIOD    4


  VOLUME BUDGET FOR ENTIRE MODEL AT END OF TIME STEP    6, STRESS PERIOD   4
  ---------------------------------------------------------------------------------------------------

     CUMULATIVE VOLUME      L**3       RATES FOR THIS TIME STEP      L**3/T          PACKAGE NAME    
     ------------------                 ------------------------                     ----------------

           IN:                                      IN:
           ---                                      ---
              STO-SS =           2.3884                STO-SS =       8.1159E-02     STORAGE         
              STO-SY =        1445.2269                STO-SY =          49.1854     STORAGE         
                 RCH =       17829.0362                   RCH =         143.0141     RCHA            
                 CHD =           0.0000                   CHD =           0.0000     CHD             

            TOTAL IN =       19276.6514              TOTAL IN =         192.2806

          OUT:                                     OUT:
          ----                                     ----
              STO-SS =           3.3053                STO-SS =       5.4321E-03     STORAGE         
              STO-SY =        2169.3730                STO-SY =           3.7648     STORAGE         
                 RCH =           0.0000                   RCH =           0.0000     RCHA            
                 CHD =       17104.1950                   CHD =         188.5094     CHD             

           TOTAL OUT =       19276.8733             TOTAL OUT =         192.2797

            IN - OUT =          -0.2219              IN - OUT =       9.8044E-04

 PERCENT DISCREPANCY =          -0.00     PERCENT DISCREPANCY =           0.00




         TIME SUMMARY AT END OF TIME STEP    6 IN STRESS PERIOD    4
                    SECONDS     MINUTES      HOURS       DAYS        YEARS
                    -----------------------------------------------------------
   TIME STEP LENGTH 2.59200E+05  4320.0      72.000      3.0000     8.21355E-03
 STRESS PERIOD TIME 1.55520E+06  25920.      432.00      18.000     4.92813E-02
         TOTAL TIME 6.82560E+06 1.13760E+05  1896.0      79.000     0.21629    
 UBDSV1 SAVING           STO-SS ON UNIT   1016 AT TIME STEP      7, STRESS PERIOD      4
 UBDSV1 SAVING           STO-SY ON UNIT   1016 AT TIME STEP      7, STRESS PERIOD      4
 UBDSV1 SAVING     FLOW-JA-FACE ON UNIT   1016 AT TIME STEP      7, STRESS PERIOD      4
 UBDSV06 SAVING              RCH IN MODEL TEST_TRANS       PACKAGE TEST_TRANS      CONNECTED TO MODEL TEST_TRANS       PACKAGE RCHA             ON UNIT   1016 AT TIME STEP      7, STRESS PERIOD      4
 UBDSV06 SAVING              CHD IN MODEL TEST_TRANS       PACKAGE TEST_TRANS      CONNECTED TO MODEL TEST_TRANS       PACKAGE CHD              ON UNIT   1016 AT TIME STEP      7, STRESS PERIOD      4

 HEAD WILL BE SAVED ON UNIT 1017 AT END OF TIME STEP    7, STRESS PERIOD    4


  VOLUME BUDGET FOR ENTIRE MODEL AT END OF TIME STEP    7, STRESS PERIOD   4
  ---------------------------------------------------------------------------------------------------

     CUMULATIVE VOLUME      L**3       RATES FOR THIS TIME STEP      L**3/T          PACKAGE NAME    
     ------------------                 ------------------------                     ----------------

           IN:                                      IN:
           ---                                      ---
              STO-SS =           2.6258                STO-SS =       7.9157E-02     STORAGE         
              STO-SY =        1589.3183                STO-SY =          48.0305     STORAGE         
                 RCH =       18258.0784                   RCH =         143.0141     RCHA            
                 CHD =           0.0000                   CHD =           0.0000     CHD             

            TOTAL IN =       19850.0225              TOTAL IN =         191.1237

          OUT:                                     OUT:
          ----                                     ----
              STO-SS =           3.3129                STO-SS =       2.5451E-03     STORAGE         
              STO-SY =        2174.6883                STO-SY =           1.7718     STORAGE         
                 RCH =           0.0000                   RCH =           0.0000     RCHA            
                 CHD =       17672.2380                   CHD =         189.3476     CHD             

           TOTAL OUT =       19850.2392             TOTAL OUT =         191.1219

            IN - OUT =          -0.2167              IN - OUT =       1.7504E-03

 PERCENT DISCREPANCY =          -0.00     PERCENT DISCREPANCY =           0.00




         TIME SUMMARY AT END OF TIME STEP    7 IN STRESS PERIOD    4
                    SECONDS     MINUTES      HOURS       DAYS        YEARS
                    -----------------------------------------------------------
   TIME STEP LENGTH 2.59200E+05  4320.0      72.000      3.0000     8.21355E-03
 STRESS PERIOD TIME 1.81440E+06  30240.      504.00      21.000     5.74949E-02
         TOTAL TIME 7.08480E+06 1.18080E+05  1968.0      82.000     0.22450    
 UBDSV1 SAVING           STO-SS ON UNIT   1016 AT TIME STEP      8, STRESS PERIOD      4
 UBDSV1 SAVING           STO-SY ON UNIT   1016 AT TIME STEP      8, STRESS PERIOD      4
 UBDSV1 SAVING     FLOW-JA-FACE ON UNIT   1016 AT TIME STEP      8, STRESS PERIOD      4
 UBDSV06 SAVING              RCH IN MODEL TEST_TRANS       PACKAGE TEST_TRANS      CONNECTED TO MODEL TEST_TRANS       PACKAGE RCHA             ON UNIT   1016 AT TIME STEP      8, STRESS PERIOD      4
 UBDSV06 SAVING              CHD IN MODEL TEST_TRANS       PACKAGE TEST_TRANS      CONNECTED TO MODEL TEST_TRANS       PACKAGE CHD              ON UNIT   1016 AT TIME STEP      8, STRESS PERIOD      4

 HEAD WILL BE SAVED ON UNIT 1017 AT END OF TIME STEP    8, STRESS PERIOD    4


  VOLUME BUDGET FOR ENTIRE MODEL AT END OF TIME STEP    8, STRESS PERIOD   4
  ---------------------------------------------------------------------------------------------------

     CUMULATIVE VOLUME      L**3       RATES FOR THIS TIME STEP      L**3/T          PACKAGE NAME    
     ------------------                 ------------------------                     ----------------

           IN:                                      IN:
           ---                                      ---
              STO-SS =           2.8591                STO-SS =       7.7771E-02     STORAGE         
              STO-SY =        1731.1273                STO-SY =          47.2697     STORAGE         
                 RCH =       18687.1206                   RCH =         143.0141     RCHA            
                 CHD =           0.0000                   CHD =           0.0000     CHD             

            TOTAL IN =       20421.1071              TOTAL IN =         190.3615

          OUT:                                     OUT:
          ----                                     ----
              STO-SS =           3.3156                STO-SS =       8.7140E-04     STORAGE         
              STO-SY =        2176.5231                STO-SY =           0.6116     STORAGE         
                 RCH =           0.0000                   RCH =           0.0000     RCHA            
                 CHD =       18241.4782                   CHD =         189.7468     CHD             

           TOTAL OUT =       20421.3169             TOTAL OUT =         190.3593

            IN - OUT =          -0.2099              IN - OUT =       2.2711E-03

 PERCENT DISCREPANCY =          -0.00     PERCENT DISCREPANCY =           0.00




         TIME SUMMARY AT END OF TIME STEP    8 IN STRESS PERIOD    4
                    SECONDS     MINUTES      HOURS       DAYS        YEARS
                    -----------------------------------------------------------
   TIME STEP LENGTH 2.59200E+05  4320.0      72.000      3.0000     8.21355E-03
 STRESS PERIOD TIME 2.07360E+06  34560.      576.00      24.000     6.57084E-02
         TOTAL TIME 7.34400E+06 1.22400E+05  2040.0      85.000     0.23272    
 UBDSV1 SAVING           STO-SS ON UNIT   1016 AT TIME STEP      9, STRESS PERIOD      4
 UBDSV1 SAVING           STO-SY ON UNIT   1016 AT TIME STEP      9, STRESS PERIOD      4
 UBDSV1 SAVING     FLOW-JA-FACE ON UNIT   1016 AT TIME STEP      9, STRESS PERIOD      4
 UBDSV06 SAVING              RCH IN MODEL TEST_TRANS       PACKAGE TEST_TRANS      CONNECTED TO MODEL TEST_TRANS       PACKAGE RCHA             ON UNIT   1016 AT TIME STEP      9, STRESS PERIOD      4
 UBDSV06 SAVING              CHD IN MODEL TEST_TRANS       PACKAGE TEST_TRANS      CONNECTED TO MODEL TEST_TRANS       PACKAGE CHD              ON UNIT   1016 AT TIME STEP      9, STRESS PERIOD      4

 HEAD WILL BE SAVED ON UNIT 1017 AT END OF TIME STEP    9, STRESS PERIOD    4


  VOLUME BUDGET FOR ENTIRE MODEL AT END OF TIME STEP    9, STRESS PERIOD   4
  ---------------------------------------------------------------------------------------------------

     CUMULATIVE VOLUME      L**3       RATES FOR THIS TIME STEP      L**3/T          PACKAGE NAME    
     ------------------                 ------------------------                     ----------------

           IN:                                      IN:
           ---                                      ---
              STO-SS =           3.0898                STO-SS =       7.6894E-02     STORAGE         
              STO-SY =        1871.6453                STO-SY =          46.8394     STORAGE         
                 RCH =       19116.1629                   RCH =         143.0141     RCHA            
                 CHD =           0.0000                   CHD =           0.0000     CHD             

            TOTAL IN =       20990.8980              TOTAL IN =         189.9303

          OUT:                                     OUT:
          ----                                     ----
              STO-SS =           3.3159                STO-SS =       1.0085E-04     STORAGE         
              STO-SY =        2176.7391                STO-SY =       7.1984E-02     STORAGE         
                 RCH =           0.0000                   RCH =           0.0000     RCHA            
                 CHD =       18811.0451                   CHD =         189.8556     CHD             

           TOTAL OUT =       20991.1001             TOTAL OUT =         189.9277

            IN - OUT =          -0.2020              IN - OUT =       2.6099E-03

 PERCENT DISCREPANCY =          -0.00     PERCENT DISCREPANCY =           0.00




         TIME SUMMARY AT END OF TIME STEP    9 IN STRESS PERIOD    4
                    SECONDS     MINUTES      HOURS       DAYS        YEARS
                    -----------------------------------------------------------
   TIME STEP LENGTH 2.59200E+05  4320.0      72.000      3.0000     8.21355E-03
 STRESS PERIOD TIME 2.33280E+06  38880.      648.00      27.000     7.39220E-02
         TOTAL TIME 7.60320E+06 1.26720E+05  2112.0      88.000     0.24093    
 UBDSV1 SAVING           STO-SS ON UNIT   1016 AT TIME STEP     10, STRESS PERIOD      4
 UBDSV1 SAVING           STO-SY ON UNIT   1016 AT TIME STEP     10, STRESS PERIOD      4
 UBDSV1 SAVING     FLOW-JA-FACE ON UNIT   1016 AT TIME STEP     10, STRESS PERIOD      4
 UBDSV06 SAVING              RCH IN MODEL TEST_TRANS       PACKAGE TEST_TRANS      CONNECTED TO MODEL TEST_TRANS       PACKAGE RCHA             ON UNIT   1016 AT TIME STEP     10, STRESS PERIOD      4
 UBDSV06 SAVING              CHD IN MODEL TEST_TRANS       PACKAGE TEST_TRANS      CONNECTED TO MODEL TEST_TRANS       PACKAGE CHD              ON UNIT   1016 AT TIME STEP     10, STRESS PERIOD      4

 HEAD WILL BE SAVED ON UNIT 1017 AT END OF TIME STEP   10, STRESS PERIOD    4


  VOLUME BUDGET FOR ENTIRE MODEL AT END OF TIME STEP   10, STRESS PERIOD   4
  ---------------------------------------------------------------------------------------------------

     CUMULATIVE VOLUME      L**3       RATES FOR THIS TIME STEP      L**3/T          PACKAGE NAME    
     ------------------                 ------------------------                     ----------------

           IN:                                      IN:
           ---                                      ---
              STO-SS =           3.3191                STO-SS =       7.6418E-02     STORAGE         
              STO-SY =        2011.6754                STO-SY =          46.6767     STORAGE         
                 RCH =       19545.2051                   RCH =         143.0141     RCHA            
                 CHD =           0.0000                   CHD =           0.0000     CHD             

            TOTAL IN =       21560.1996              TOTAL IN =         189.7672

          OUT:                                     OUT:
          ----                                     ----
              STO-SS =           3.3159                STO-SS =           0.0000     STORAGE         
              STO-SY =        2176.7391                STO-SY =           0.0000     STORAGE         
                 RCH =           0.0000                   RCH =           0.0000     RCHA            
                 CHD =       19380.3381                   CHD =         189.7643     CHD             

           TOTAL OUT =       21560.3931             TOTAL OUT =         189.7643

            IN - OUT =          -0.1935              IN - OUT =       2.8252E-03

 PERCENT DISCREPANCY =          -0.00     PERCENT DISCREPANCY =           0.00




         TIME SUMMARY AT END OF TIME STEP   10 IN STRESS PERIOD    4
                    SECONDS     MINUTES      HOURS       DAYS        YEARS
                    -----------------------------------------------------------
   TIME STEP LENGTH 2.59200E+05  4320.0      72.000      3.0000     8.21355E-03
 STRESS PERIOD TIME 2.59200E+06  43200.      720.00      30.000     8.21355E-02
         TOTAL TIME 7.86240E+06 1.31040E+05  2184.0      91.000     0.24914    

 OUTPUT CONTROL FOR STRESS PERIOD 5 IS REPEATED USING SETTINGS FROM A PREVIOUS STRESS PERIOD.


 STRESS PERIOD 5 IS TRANSIENT


                 RECHARGE =  0.1232880E-02
 UBDSV1 SAVING           STO-SS ON UNIT   1016 AT TIME STEP      1, STRESS PERIOD      5
 UBDSV1 SAVING           STO-SY ON UNIT   1016 AT TIME STEP      1, STRESS PERIOD      5
 UBDSV1 SAVING     FLOW-JA-FACE ON UNIT   1016 AT TIME STEP      1, STRESS PERIOD      5
 UBDSV06 SAVING              RCH IN MODEL TEST_TRANS       PACKAGE TEST_TRANS      CONNECTED TO MODEL TEST_TRANS       PACKAGE RCHA             ON UNIT   1016 AT TIME STEP      1, STRESS PERIOD      5
 UBDSV06 SAVING              CHD IN MODEL TEST_TRANS       PACKAGE TEST_TRANS      CONNECTED TO MODEL TEST_TRANS       PACKAGE CHD              ON UNIT   1016 AT TIME STEP      1, STRESS PERIOD      5

 HEAD WILL BE SAVED ON UNIT 1017 AT END OF TIME STEP    1, STRESS PERIOD    5


  VOLUME BUDGET FOR ENTIRE MODEL AT END OF TIME STEP    1, STRESS PERIOD   5
  ---------------------------------------------------------------------------------------------------

     CUMULATIVE VOLUME      L**3       RATES FOR THIS TIME STEP      L**3/T          PACKAGE NAME    
     ------------------                 ------------------------                     ----------------

           IN:                                      IN:
           ---                                      ---
              STO-SS =           3.6668                STO-SS =           0.1159     STORAGE         
              STO-SY =        2224.2313                STO-SY =          70.8520     STORAGE         
                 RCH =       19866.9868                   RCH =         107.2606     RCHA            
                 CHD =           0.0000                   CHD =           0.0000     CHD             

            TOTAL IN =       22094.8848              TOTAL IN =         178.2284

          OUT:                                     OUT:
          ----                                     ----
              STO-SS =           3.4874                STO-SS =       5.7186E-02     STORAGE         
              STO-SY =        2298.3238                STO-SY =          40.5282     STORAGE         
                 RCH =           0.0000                   RCH =           0.0000     RCHA            
                 CHD =       19793.2598                   CHD =         137.6406     CHD             

           TOTAL OUT =       22095.0711             TOTAL OUT =         178.2260

            IN - OUT =          -0.1863              IN - OUT =       2.4296E-03

 PERCENT DISCREPANCY =          -0.00     PERCENT DISCREPANCY =           0.00




         TIME SUMMARY AT END OF TIME STEP    1 IN STRESS PERIOD    5
                    SECONDS     MINUTES      HOURS       DAYS        YEARS
                    -----------------------------------------------------------
   TIME STEP LENGTH 2.59200E+05  4320.0      72.000      3.0000     8.21355E-03
 STRESS PERIOD TIME 2.59200E+05  4320.0      72.000      3.0000     8.21355E-03
         TOTAL TIME 8.12160E+06 1.35360E+05  2256.0      94.000     0.25736    
 UBDSV1 SAVING           STO-SS ON UNIT   1016 AT TIME STEP      2, STRESS PERIOD      5
 UBDSV1 SAVING           STO-SY ON UNIT   1016 AT TIME STEP      2, STRESS PERIOD      5
 UBDSV1 SAVING     FLOW-JA-FACE ON UNIT   1016 AT TIME STEP      2, STRESS PERIOD      5
 UBDSV06 SAVING              RCH IN MODEL TEST_TRANS       PACKAGE TEST_TRANS      CONNECTED TO MODEL TEST_TRANS       PACKAGE RCHA             ON UNIT   1016 AT TIME STEP      2, STRESS PERIOD      5
 UBDSV06 SAVING              CHD IN MODEL TEST_TRANS       PACKAGE TEST_TRANS      CONNECTED TO MODEL TEST_TRANS       PACKAGE CHD              ON UNIT   1016 AT TIME STEP      2, STRESS PERIOD      5

 HEAD WILL BE SAVED ON UNIT 1017 AT END OF TIME STEP    2, STRESS PERIOD    5


  VOLUME BUDGET FOR ENTIRE MODEL AT END OF TIME STEP    2, STRESS PERIOD   5
  ---------------------------------------------------------------------------------------------------

     CUMULATIVE VOLUME      L**3       RATES FOR THIS TIME STEP      L**3/T          PACKAGE NAME    
     ------------------                 ------------------------                     ----------------

           IN:                                      IN:
           ---                                      ---
              STO-SS =           3.9954                STO-SS =           0.1096     STORAGE         
              STO-SY =        2424.9567                STO-SY =          66.9085     STORAGE         
                 RCH =       20188.7685                   RCH =         107.2606     RCHA            
                 CHD =           0.0000                   CHD =           0.0000     CHD             

            TOTAL IN =       22617.7206              TOTAL IN =         174.2786

          OUT:                                     OUT:
          ----                                     ----
              STO-SS =           3.5692                STO-SS =       2.7275E-02     STORAGE         
              STO-SY =        2355.5094                STO-SY =          19.0619     STORAGE         
                 RCH =           0.0000                   RCH =           0.0000     RCHA            
                 CHD =       20258.8100                   CHD =         155.1834     CHD             

           TOTAL OUT =       22617.8886             TOTAL OUT =         174.2725

            IN - OUT =          -0.1680              IN - OUT =       6.0852E-03

 PERCENT DISCREPANCY =          -0.00     PERCENT DISCREPANCY =           0.00




         TIME SUMMARY AT END OF TIME STEP    2 IN STRESS PERIOD    5
                    SECONDS     MINUTES      HOURS       DAYS        YEARS
                    -----------------------------------------------------------
   TIME STEP LENGTH 2.59200E+05  4320.0      72.000      3.0000     8.21355E-03
 STRESS PERIOD TIME 5.18400E+05  8640.0      144.00      6.0000     1.64271E-02
         TOTAL TIME 8.38080E+06 1.39680E+05  2328.0      97.000     0.26557    
 UBDSV1 SAVING           STO-SS ON UNIT   1016 AT TIME STEP      3, STRESS PERIOD      5
 UBDSV1 SAVING           STO-SY ON UNIT   1016 AT TIME STEP      3, STRESS PERIOD      5
 UBDSV1 SAVING     FLOW-JA-FACE ON UNIT   1016 AT TIME STEP      3, STRESS PERIOD      5
 UBDSV06 SAVING              RCH IN MODEL TEST_TRANS       PACKAGE TEST_TRANS      CONNECTED TO MODEL TEST_TRANS       PACKAGE RCHA             ON UNIT   1016 AT TIME STEP      3, STRESS PERIOD      5
 UBDSV06 SAVING              CHD IN MODEL TEST_TRANS       PACKAGE TEST_TRANS      CONNECTED TO MODEL TEST_TRANS       PACKAGE CHD              ON UNIT   1016 AT TIME STEP      3, STRESS PERIOD      5

 HEAD WILL BE SAVED ON UNIT 1017 AT END OF TIME STEP    3, STRESS PERIOD    5


  VOLUME BUDGET FOR ENTIRE MODEL AT END OF TIME STEP    3, STRESS PERIOD   5
  ---------------------------------------------------------------------------------------------------

     CUMULATIVE VOLUME      L**3       RATES FOR THIS TIME STEP      L**3/T          PACKAGE NAME    
     ------------------                 ------------------------                     ----------------

           IN:                                      IN:
           ---                                      ---
              STO-SS =           4.3101                STO-SS =           0.1049     STORAGE         
              STO-SY =        2617.0907                STO-SY =          64.0447     STORAGE         
                 RCH =       20510.5502                   RCH =         107.2606     RCHA            
                 CHD =           0.0000                   CHD =           0.0000     CHD             

            TOTAL IN =       23131.9509              TOTAL IN =         171.4101

          OUT:                                     OUT:
          ----                                     ----
              STO-SS =           3.6121                STO-SS =       1.4296E-02     STORAGE         
              STO-SY =        2385.2843                STO-SY =           9.9250     STORAGE         
                 RCH =           0.0000                   RCH =           0.0000     RCHA            
                 CHD =       20743.2159                   CHD =         161.4686     CHD             

           TOTAL OUT =       23132.1123             TOTAL OUT =         171.4079

            IN - OUT =          -0.1614              IN - OUT =       2.2098E-03

 PERCENT DISCREPANCY =          -0.00     PERCENT DISCREPANCY =           0.00




         TIME SUMMARY AT END OF TIME STEP    3 IN STRESS PERIOD    5
                    SECONDS     MINUTES      HOURS       DAYS        YEARS
                    -----------------------------------------------------------
   TIME STEP LENGTH 2.59200E+05  4320.0      72.000      3.0000     8.21355E-03
 STRESS PERIOD TIME 7.77600E+05  12960.      216.00      9.0000     2.46407E-02
         TOTAL TIME 8.64000E+06 1.44000E+05  2400.0      100.00     0.27379    
 UBDSV1 SAVING           STO-SS ON UNIT   1016 AT TIME STEP      4, STRESS PERIOD      5
 UBDSV1 SAVING           STO-SY ON UNIT   1016 AT TIME STEP      4, STRESS PERIOD      5
 UBDSV1 SAVING     FLOW-JA-FACE ON UNIT   1016 AT TIME STEP      4, STRESS PERIOD      5
 UBDSV06 SAVING              RCH IN MODEL TEST_TRANS       PACKAGE TEST_TRANS      CONNECTED TO MODEL TEST_TRANS       PACKAGE RCHA             ON UNIT   1016 AT TIME STEP      4, STRESS PERIOD      5
 UBDSV06 SAVING              CHD IN MODEL TEST_TRANS       PACKAGE TEST_TRANS      CONNECTED TO MODEL TEST_TRANS       PACKAGE CHD              ON UNIT   1016 AT TIME STEP      4, STRESS PERIOD      5

 HEAD WILL BE SAVED ON UNIT 1017 AT END OF TIME STEP    4, STRESS PERIOD    5


  VOLUME BUDGET FOR ENTIRE MODEL AT END OF TIME STEP    4, STRESS PERIOD   5
  ---------------------------------------------------------------------------------------------------

     CUMULATIVE VOLUME      L**3       RATES FOR THIS TIME STEP      L**3/T          PACKAGE NAME    
     ------------------                 ------------------------                     ----------------

           IN:                                      IN:
           ---                                      ---
              STO-SS =           4.6140                STO-SS =           0.1013     STORAGE         
              STO-SY =        2802.8008                STO-SY =          61.9034     STORAGE         
                 RCH =       20832.3318                   RCH =         107.2606     RCHA            
                 CHD =           0.0000                   CHD =           0.0000     CHD             

            TOTAL IN =       23639.7466              TOTAL IN =         169.2653

          OUT:                                     OUT:
          ----                                     ----
              STO-SS =           3.6339                STO-SS =       7.2607E-03     STORAGE         
              STO-SY =        2400.3784                STO-SY =           5.0314     STORAGE         
                 RCH =           0.0000                   RCH =           0.0000     RCHA            
                 CHD =       21235.8897                   CHD =         164.2246     CHD             

           TOTAL OUT =       23639.9020             TOTAL OUT =         169.2633

            IN - OUT =          -0.1554              IN - OUT =       2.0022E-03

 PERCENT DISCREPANCY =          -0.00     PERCENT DISCREPANCY =           0.00




         TIME SUMMARY AT END OF TIME STEP    4 IN STRESS PERIOD    5
                    SECONDS     MINUTES      HOURS       DAYS        YEARS
                    -----------------------------------------------------------
   TIME STEP LENGTH 2.59200E+05  4320.0      72.000      3.0000     8.21355E-03
 STRESS PERIOD TIME 1.03680E+06  17280.      288.00      12.000     3.28542E-02
         TOTAL TIME 8.89920E+06 1.48320E+05  2472.0      103.00     0.28200    
 UBDSV1 SAVING           STO-SS ON UNIT   1016 AT TIME STEP      5, STRESS PERIOD      5
 UBDSV1 SAVING           STO-SY ON UNIT   1016 AT TIME STEP      5, STRESS PERIOD      5
 UBDSV1 SAVING     FLOW-JA-FACE ON UNIT   1016 AT TIME STEP      5, STRESS PERIOD      5
 UBDSV06 SAVING              RCH IN MODEL TEST_TRANS       PACKAGE TEST_TRANS      CONNECTED TO MODEL TEST_TRANS       PACKAGE RCHA             ON UNIT   1016 AT TIME STEP      5, STRESS PERIOD      5
 UBDSV06 SAVING              CHD IN MODEL TEST_TRANS       PACKAGE TEST_TRANS      CONNECTED TO MODEL TEST_TRANS       PACKAGE CHD              ON UNIT   1016 AT TIME STEP      5, STRESS PERIOD      5

 HEAD WILL BE SAVED ON UNIT 1017 AT END OF TIME STEP    5, STRESS PERIOD    5


  VOLUME BUDGET FOR ENTIRE MODEL AT END OF TIME STEP    5, STRESS PERIOD   5
  ---------------------------------------------------------------------------------------------------

     CUMULATIVE VOLUME      L**3       RATES FOR THIS TIME STEP      L**3/T          PACKAGE NAME    
     ------------------                 ------------------------                     ----------------

           IN:                                      IN:
           ---                                      ---
              STO-SS =           4.9102                STO-SS =       9.8717E-02     STORAGE         
              STO-SY =        2983.9702                STO-SY =          60.3898     STORAGE         
                 RCH =       21154.1135                   RCH =         107.2606     RCHA            
                 CHD =           0.0000                   CHD =           0.0000     CHD             

            TOTAL IN =       24142.9939              TOTAL IN =         167.7491

          OUT:                                     OUT:
          ----                                     ----
              STO-SS =           3.6436                STO-SS =       3.2170E-03     STORAGE         
              STO-SY =        2407.0791                STO-SY =           2.2336     STORAGE         
                 RCH =           0.0000                   RCH =           0.0000     RCHA            
                 CHD =       21732.4190                   CHD =         165.5098     CHD             

           TOTAL OUT =       24143.1417             TOTAL OUT =         167.7466

            IN - OUT =          -0.1478              IN - OUT =       2.5320E-03

 PERCENT DISCREPANCY =          -0.00     PERCENT DISCREPANCY =           0.00




         TIME SUMMARY AT END OF TIME STEP    5 IN STRESS PERIOD    5
                    SECONDS     MINUTES      HOURS       DAYS        YEARS
                    -----------------------------------------------------------
   TIME STEP LENGTH 2.59200E+05  4320.0      72.000      3.0000     8.21355E-03
 STRESS PERIOD TIME 1.29600E+06  21600.      360.00      15.000     4.10678E-02
         TOTAL TIME 9.15840E+06 1.52640E+05  2544.0      106.00     0.29021    
 UBDSV1 SAVING           STO-SS ON UNIT   1016 AT TIME STEP      6, STRESS PERIOD      5
 UBDSV1 SAVING           STO-SY ON UNIT   1016 AT TIME STEP      6, STRESS PERIOD      5
 UBDSV1 SAVING     FLOW-JA-FACE ON UNIT   1016 AT TIME STEP      6, STRESS PERIOD      5
 UBDSV06 SAVING              RCH IN MODEL TEST_TRANS       PACKAGE TEST_TRANS      CONNECTED TO MODEL TEST_TRANS       PACKAGE RCHA             ON UNIT   1016 AT TIME STEP      6, STRESS PERIOD      5
 UBDSV06 SAVING              CHD IN MODEL TEST_TRANS       PACKAGE TEST_TRANS      CONNECTED TO MODEL TEST_TRANS       PACKAGE CHD              ON UNIT   1016 AT TIME STEP      6, STRESS PERIOD      5

 HEAD WILL BE SAVED ON UNIT 1017 AT END OF TIME STEP    6, STRESS PERIOD    5


  VOLUME BUDGET FOR ENTIRE MODEL AT END OF TIME STEP    6, STRESS PERIOD   5
  ---------------------------------------------------------------------------------------------------

     CUMULATIVE VOLUME      L**3       RATES FOR THIS TIME STEP      L**3/T          PACKAGE NAME    
     ------------------                 ------------------------                     ----------------

           IN:                                      IN:
           ---                                      ---
              STO-SS =           5.2009                STO-SS =       9.6926E-02     STORAGE         
              STO-SY =        3162.1464                STO-SY =          59.3921     STORAGE         
                 RCH =       21475.8952                   RCH =         107.2606     RCHA            
                 CHD =           0.0000                   CHD =           0.0000     CHD             

            TOTAL IN =       24643.2425              TOTAL IN =         166.7495

          OUT:                                     OUT:
          ----                                     ----
              STO-SS =           3.6466                STO-SS =       9.9896E-04     STORAGE         
              STO-SY =        2409.1728                STO-SY =           0.6979     STORAGE         
                 RCH =           0.0000                   RCH =           0.0000     RCHA            
                 CHD =       22230.5623                   CHD =         166.0478     CHD             

           TOTAL OUT =       24643.3816             TOTAL OUT =         166.7466

            IN - OUT =          -0.1391              IN - OUT =       2.8960E-03

 PERCENT DISCREPANCY =          -0.00     PERCENT DISCREPANCY =           0.00




         TIME SUMMARY AT END OF TIME STEP    6 IN STRESS PERIOD    5
                    SECONDS     MINUTES      HOURS       DAYS        YEARS
                    -----------------------------------------------------------
   TIME STEP LENGTH 2.59200E+05  4320.0      72.000      3.0000     8.21355E-03
 STRESS PERIOD TIME 1.55520E+06  25920.      432.00      18.000     4.92813E-02
         TOTAL TIME 9.41760E+06 1.56960E+05  2616.0      109.00     0.29843    
 UBDSV1 SAVING           STO-SS ON UNIT   1016 AT TIME STEP      7, STRESS PERIOD      5
 UBDSV1 SAVING           STO-SY ON UNIT   1016 AT TIME STEP      7, STRESS PERIOD      5
 UBDSV1 SAVING     FLOW-JA-FACE ON UNIT   1016 AT TIME STEP      7, STRESS PERIOD      5
 UBDSV06 SAVING              RCH IN MODEL TEST_TRANS       PACKAGE TEST_TRANS      CONNECTED TO MODEL TEST_TRANS       PACKAGE RCHA             ON UNIT   1016 AT TIME STEP      7, STRESS PERIOD      5
 UBDSV06 SAVING              CHD IN MODEL TEST_TRANS       PACKAGE TEST_TRANS      CONNECTED TO MODEL TEST_TRANS       PACKAGE CHD              ON UNIT   1016 AT TIME STEP      7, STRESS PERIOD      5

 HEAD WILL BE SAVED ON UNIT 1017 AT END OF TIME STEP    7, STRESS PERIOD    5


  VOLUME BUDGET FOR ENTIRE MODEL AT END OF TIME STEP    7, STRESS PERIOD   5
  ---------------------------------------------------------------------------------------------------

     CUMULATIVE VOLUME      L**3       RATES FOR THIS TIME STEP      L**3/T          PACKAGE NAME    
     ------------------                 ------------------------                     ----------------

           IN:                                      IN:
           ---                                      ---
              STO-SS =           5.4885                STO-SS =       9.5841E-02     STORAGE         
              STO-SY =        3338.7134                STO-SY =          58.8557     STORAGE         
                 RCH =       21797.6769                   RCH =         107.2606     RCHA            
                 CHD =           0.0000                   CHD =           0.0000     CHD             

            TOTAL IN =       25141.8788              TOTAL IN =         166.2121

          OUT:                                     OUT:
          ----                                     ----
              STO-SS =           3.6468                STO-SS =       7.7695E-05     STORAGE         
              STO-SY =        2409.3379                STO-SY =       5.5044E-02     STORAGE         
                 RCH =           0.0000                   RCH =           0.0000     RCHA            
                 CHD =       22729.0238                   CHD =         166.1538     CHD             

           TOTAL OUT =       25142.0085             TOTAL OUT =         166.2090

            IN - OUT =          -0.1298              IN - OUT =       3.1071E-03

 PERCENT DISCREPANCY =          -0.00     PERCENT DISCREPANCY =           0.00




         TIME SUMMARY AT END OF TIME STEP    7 IN STRESS PERIOD    5
                    SECONDS     MINUTES      HOURS       DAYS        YEARS
                    -----------------------------------------------------------
   TIME STEP LENGTH 2.59200E+05  4320.0      72.000      3.0000     8.21355E-03
 STRESS PERIOD TIME 1.81440E+06  30240.      504.00      21.000     5.74949E-02
         TOTAL TIME 9.67680E+06 1.61280E+05  2688.0      112.00     0.30664    
 UBDSV1 SAVING           STO-SS ON UNIT   1016 AT TIME STEP      8, STRESS PERIOD      5
 UBDSV1 SAVING           STO-SY ON UNIT   1016 AT TIME STEP      8, STRESS PERIOD      5
 UBDSV1 SAVING     FLOW-JA-FACE ON UNIT   1016 AT TIME STEP      8, STRESS PERIOD      5
 UBDSV06 SAVING              RCH IN MODEL TEST_TRANS       PACKAGE TEST_TRANS      CONNECTED TO MODEL TEST_TRANS       PACKAGE RCHA             ON UNIT   1016 AT TIME STEP      8, STRESS PERIOD      5
 UBDSV06 SAVING              CHD IN MODEL TEST_TRANS       PACKAGE TEST_TRANS      CONNECTED TO MODEL TEST_TRANS       PACKAGE CHD              ON UNIT   1016 AT TIME STEP      8, STRESS PERIOD      5

 HEAD WILL BE SAVED ON UNIT 1017 AT END OF TIME STEP    8, STRESS PERIOD    5


  VOLUME BUDGET FOR ENTIRE MODEL AT END OF TIME STEP    8, STRESS PERIOD   5
  ---------------------------------------------------------------------------------------------------

     CUMULATIVE VOLUME      L**3       RATES FOR THIS TIME STEP      L**3/T          PACKAGE NAME    
     ------------------                 ------------------------                     ----------------

           IN:                                      IN:
           ---                                      ---
              STO-SS =           5.7741                STO-SS =       9.5231E-02     STORAGE         
              STO-SY =        3514.6210                STO-SY =          58.6359     STORAGE         
                 RCH =       22119.4586                   RCH =         107.2606     RCHA            
                 CHD =           0.0000                   CHD =           0.0000     CHD             

            TOTAL IN =       25639.8537              TOTAL IN =         165.9917

          OUT:                                     OUT:
          ----                                     ----
              STO-SS =           3.6468                STO-SS =           0.0000     STORAGE         
              STO-SY =        2409.3379                STO-SY =           0.0000     STORAGE         
                 RCH =           0.0000                   RCH =           0.0000     RCHA            
                 CHD =       23226.9890                   CHD =         165.9884     CHD             

           TOTAL OUT =       25639.9737             TOTAL OUT =         165.9884

            IN - OUT =          -0.1200              IN - OUT =       3.2496E-03

 PERCENT DISCREPANCY =          -0.00     PERCENT DISCREPANCY =           0.00




         TIME SUMMARY AT END OF TIME STEP    8 IN STRESS PERIOD    5
                    SECONDS     MINUTES      HOURS       DAYS        YEARS
                    -----------------------------------------------------------
   TIME STEP LENGTH 2.59200E+05  4320.0      72.000      3.0000     8.21355E-03
 STRESS PERIOD TIME 2.07360E+06  34560.      576.00      24.000     6.57084E-02
         TOTAL TIME 9.93600E+06 1.65600E+05  2760.0      115.00     0.31485    
 UBDSV1 SAVING           STO-SS ON UNIT   1016 AT TIME STEP      9, STRESS PERIOD      5
 UBDSV1 SAVING           STO-SY ON UNIT   1016 AT TIME STEP      9, STRESS PERIOD      5
 UBDSV1 SAVING     FLOW-JA-FACE ON UNIT   1016 AT TIME STEP      9, STRESS PERIOD      5
 UBDSV06 SAVING              RCH IN MODEL TEST_TRANS       PACKAGE TEST_TRANS      CONNECTED TO MODEL TEST_TRANS       PACKAGE RCHA             ON UNIT   1016 AT TIME STEP      9, STRESS PERIOD      5
 UBDSV06 SAVING              CHD IN MODEL TEST_TRANS       PACKAGE TEST_TRANS      CONNECTED TO MODEL TEST_TRANS       PACKAGE CHD              ON UNIT   1016 AT TIME STEP      9, STRESS PERIOD      5

 HEAD WILL BE SAVED ON UNIT 1017 AT END OF TIME STEP    9, STRESS PERIOD    5


  VOLUME BUDGET FOR ENTIRE MODEL AT END OF TIME STEP    9, STRESS PERIOD   5
  ---------------------------------------------------------------------------------------------------

     CUMULATIVE VOLUME      L**3       RATES FOR THIS TIME STEP      L**3/T          PACKAGE NAME    
     ------------------                 ------------------------                     ----------------

           IN:                                      IN:
           ---                                      ---
              STO-SS =           6.0575                STO-SS =       9.4454E-02     STORAGE         
              STO-SY =        3689.4928                STO-SY =          58.2906     STORAGE         
                 RCH =       22441.2402                   RCH =         107.2606     RCHA            
                 CHD =           0.0000                   CHD =           0.0000     CHD             

            TOTAL IN =       26136.7905              TOTAL IN =         165.6456

          OUT:                                     OUT:
          ----                                     ----
              STO-SS =           3.6468                STO-SS =           0.0000     STORAGE         
              STO-SY =        2409.3379                STO-SY =           0.0000     STORAGE         
                 RCH =           0.0000                   RCH =           0.0000     RCHA            
                 CHD =       23723.9159                   CHD =         165.6423     CHD             

           TOTAL OUT =       26136.9006             TOTAL OUT =         165.6423

            IN - OUT =          -0.1101              IN - OUT =       3.3096E-03

 PERCENT DISCREPANCY =          -0.00     PERCENT DISCREPANCY =           0.00




         TIME SUMMARY AT END OF TIME STEP    9 IN STRESS PERIOD    5
                    SECONDS     MINUTES      HOURS       DAYS        YEARS
                    -----------------------------------------------------------
   TIME STEP LENGTH 2.59200E+05  4320.0      72.000      3.0000     8.21355E-03
 STRESS PERIOD TIME 2.33280E+06  38880.      648.00      27.000     7.39220E-02
         TOTAL TIME 1.01952E+07 1.69920E+05  2832.0      118.00     0.32307    
 UBDSV1 SAVING           STO-SS ON UNIT   1016 AT TIME STEP     10, STRESS PERIOD      5
 UBDSV1 SAVING           STO-SY ON UNIT   1016 AT TIME STEP     10, STRESS PERIOD      5
 UBDSV1 SAVING     FLOW-JA-FACE ON UNIT   1016 AT TIME STEP     10, STRESS PERIOD      5
 UBDSV06 SAVING              RCH IN MODEL TEST_TRANS       PACKAGE TEST_TRANS      CONNECTED TO MODEL TEST_TRANS       PACKAGE RCHA             ON UNIT   1016 AT TIME STEP     10, STRESS PERIOD      5
 UBDSV06 SAVING              CHD IN MODEL TEST_TRANS       PACKAGE TEST_TRANS      CONNECTED TO MODEL TEST_TRANS       PACKAGE CHD              ON UNIT   1016 AT TIME STEP     10, STRESS PERIOD      5

 HEAD WILL BE SAVED ON UNIT 1017 AT END OF TIME STEP   10, STRESS PERIOD    5


  VOLUME BUDGET FOR ENTIRE MODEL AT END OF TIME STEP   10, STRESS PERIOD   5
  ---------------------------------------------------------------------------------------------------

     CUMULATIVE VOLUME      L**3       RATES FOR THIS TIME STEP      L**3/T          PACKAGE NAME    
     ------------------                 ------------------------                     ----------------

           IN:                                      IN:
           ---                                      ---
              STO-SS =           6.3380                STO-SS =       9.3510E-02     STORAGE         
              STO-SY =        3862.9540                STO-SY =          57.8204     STORAGE         
                 RCH =       22763.0219                   RCH =         107.2606     RCHA            
                 CHD =           0.0000                   CHD =           0.0000     CHD             

            TOTAL IN =       26632.3140              TOTAL IN =         165.1745

          OUT:                                     OUT:
          ----                                     ----
              STO-SS =           3.6468                STO-SS =           0.0000     STORAGE         
              STO-SY =        2409.3379                STO-SY =           0.0000     STORAGE         
                 RCH =           0.0000                   RCH =           0.0000     RCHA            
                 CHD =       24219.4295                   CHD =         165.1712     CHD             

           TOTAL OUT =       26632.4142             TOTAL OUT =         165.1712

            IN - OUT =          -0.1002              IN - OUT =       3.2845E-03

 PERCENT DISCREPANCY =          -0.00     PERCENT DISCREPANCY =           0.00




         TIME SUMMARY AT END OF TIME STEP   10 IN STRESS PERIOD    5
                    SECONDS     MINUTES      HOURS       DAYS        YEARS
                    -----------------------------------------------------------
   TIME STEP LENGTH 2.59200E+05  4320.0      72.000      3.0000     8.21355E-03
 STRESS PERIOD TIME 2.59200E+06  43200.      720.00      30.000     8.21355E-02
         TOTAL TIME 1.04544E+07 1.74240E+05  2904.0      121.00     0.33128    

 OUTPUT CONTROL FOR STRESS PERIOD 6 IS REPEATED USING SETTINGS FROM A PREVIOUS STRESS PERIOD.


 STRESS PERIOD 6 IS TRANSIENT


                 RECHARGE =  0.8219178E-03
 UBDSV1 SAVING           STO-SS ON UNIT   1016 AT TIME STEP      1, STRESS PERIOD      6
 UBDSV1 SAVING           STO-SY ON UNIT   1016 AT TIME STEP      1, STRESS PERIOD      6
 UBDSV1 SAVING     FLOW-JA-FACE ON UNIT   1016 AT TIME STEP      1, STRESS PERIOD      6
 UBDSV06 SAVING              RCH IN MODEL TEST_TRANS       PACKAGE TEST_TRANS      CONNECTED TO MODEL TEST_TRANS       PACKAGE RCHA             ON UNIT   1016 AT TIME STEP      1, STRESS PERIOD      6
 UBDSV06 SAVING              CHD IN MODEL TEST_TRANS       PACKAGE TEST_TRANS      CONNECTED TO MODEL TEST_TRANS       PACKAGE CHD              ON UNIT   1016 AT TIME STEP      1, STRESS PERIOD      6

 HEAD WILL BE SAVED ON UNIT 1017 AT END OF TIME STEP    1, STRESS PERIOD    6


  VOLUME BUDGET FOR ENTIRE MODEL AT END OF TIME STEP    1, STRESS PERIOD   6
  ---------------------------------------------------------------------------------------------------

     CUMULATIVE VOLUME      L**3       RATES FOR THIS TIME STEP      L**3/T          PACKAGE NAME    
     ------------------                 ------------------------                     ----------------

           IN:                                      IN:
           ---                                      ---
              STO-SS =           6.7189                STO-SS =           0.1269     STORAGE         
              STO-SY =        4097.6109                STO-SY =          78.2190     STORAGE         
                 RCH =       22977.5425                   RCH =          71.5068     RCHA            
                 CHD =           0.0000                   CHD =           0.0000     CHD             

            TOTAL IN =       27081.8723              TOTAL IN =         149.8528

          OUT:                                     OUT:
          ----                                     ----
              STO-SS =           3.9458                STO-SS =       9.9675E-02     STORAGE         
              STO-SY =        2618.8394                STO-SY =          69.8338     STORAGE         
                 RCH =           0.0000                   RCH =           0.0000     RCHA            
                 CHD =       24459.1814                   CHD =          79.9173     CHD             

           TOTAL OUT =       27081.9666             TOTAL OUT =         149.8508

            IN - OUT =      -9.4354E-02              IN - OUT =       1.9591E-03

 PERCENT DISCREPANCY =          -0.00     PERCENT DISCREPANCY =           0.00




         TIME SUMMARY AT END OF TIME STEP    1 IN STRESS PERIOD    6
                    SECONDS     MINUTES      HOURS       DAYS        YEARS
                    -----------------------------------------------------------
   TIME STEP LENGTH 2.59200E+05  4320.0      72.000      3.0000     8.21355E-03
 STRESS PERIOD TIME 2.59200E+05  4320.0      72.000      3.0000     8.21355E-03
         TOTAL TIME 1.07136E+07 1.78560E+05  2976.0      124.00     0.33949    
 UBDSV1 SAVING           STO-SS ON UNIT   1016 AT TIME STEP      2, STRESS PERIOD      6
 UBDSV1 SAVING           STO-SY ON UNIT   1016 AT TIME STEP      2, STRESS PERIOD      6
 UBDSV1 SAVING     FLOW-JA-FACE ON UNIT   1016 AT TIME STEP      2, STRESS PERIOD      6
 UBDSV06 SAVING              RCH IN MODEL TEST_TRANS       PACKAGE TEST_TRANS      CONNECTED TO MODEL TEST_TRANS       PACKAGE RCHA             ON UNIT   1016 AT TIME STEP      2, STRESS PERIOD      6
 UBDSV06 SAVING              CHD IN MODEL TEST_TRANS       PACKAGE TEST_TRANS      CONNECTED TO MODEL TEST_TRANS       PACKAGE CHD              ON UNIT   1016 AT TIME STEP      2, STRESS PERIOD      6

 HEAD WILL BE SAVED ON UNIT 1017 AT END OF TIME STEP    2, STRESS PERIOD    6


  VOLUME BUDGET FOR ENTIRE MODEL AT END OF TIME STEP    2, STRESS PERIOD   6
  ---------------------------------------------------------------------------------------------------

     CUMULATIVE VOLUME      L**3       RATES FOR THIS TIME STEP      L**3/T          PACKAGE NAME    
     ------------------                 ------------------------                     ----------------

           IN:                                      IN:
           ---                                      ---
              STO-SS =           7.0748                STO-SS =           0.1187     STORAGE         
              STO-SY =        4316.6900                STO-SY =          73.0264     STORAGE         
                 RCH =       23192.0630                   RCH =          71.5068     RCHA            
                 CHD =           0.0000                   CHD =           0.0000     CHD             

            TOTAL IN =       27515.8279              TOTAL IN =         144.6519

          OUT:                                     OUT:
          ----                                     ----
              STO-SS =           4.0965                STO-SS =       5.0231E-02     STORAGE         
              STO-SY =        2722.8677                STO-SY =          34.6761     STORAGE         
                 RCH =           0.0000                   RCH =           0.0000     RCHA            
                 CHD =       24788.9459                   CHD =         109.9215     CHD             

           TOTAL OUT =       27515.9101             TOTAL OUT =         144.6478

            IN - OUT =      -8.2275E-02              IN - OUT =       4.0263E-03

 PERCENT DISCREPANCY =          -0.00     PERCENT DISCREPANCY =           0.00




         TIME SUMMARY AT END OF TIME STEP    2 IN STRESS PERIOD    6
                    SECONDS     MINUTES      HOURS       DAYS        YEARS
                    -----------------------------------------------------------
   TIME STEP LENGTH 2.59200E+05  4320.0      72.000      3.0000     8.21355E-03
 STRESS PERIOD TIME 5.18400E+05  8640.0      144.00      6.0000     1.64271E-02
         TOTAL TIME 1.09728E+07 1.82880E+05  3048.0      127.00     0.34771    
 UBDSV1 SAVING           STO-SS ON UNIT   1016 AT TIME STEP      3, STRESS PERIOD      6
 UBDSV1 SAVING           STO-SY ON UNIT   1016 AT TIME STEP      3, STRESS PERIOD      6
 UBDSV1 SAVING     FLOW-JA-FACE ON UNIT   1016 AT TIME STEP      3, STRESS PERIOD      6
 UBDSV06 SAVING              RCH IN MODEL TEST_TRANS       PACKAGE TEST_TRANS      CONNECTED TO MODEL TEST_TRANS       PACKAGE RCHA             ON UNIT   1016 AT TIME STEP      3, STRESS PERIOD      6
 UBDSV06 SAVING              CHD IN MODEL TEST_TRANS       PACKAGE TEST_TRANS      CONNECTED TO MODEL TEST_TRANS       PACKAGE CHD              ON UNIT   1016 AT TIME STEP      3, STRESS PERIOD      6

 HEAD WILL BE SAVED ON UNIT 1017 AT END OF TIME STEP    3, STRESS PERIOD    6


  VOLUME BUDGET FOR ENTIRE MODEL AT END OF TIME STEP    3, STRESS PERIOD   6
  ---------------------------------------------------------------------------------------------------

     CUMULATIVE VOLUME      L**3       RATES FOR THIS TIME STEP      L**3/T          PACKAGE NAME    
     ------------------                 ------------------------                     ----------------

           IN:                                      IN:
           ---                                      ---
              STO-SS =           7.4121                STO-SS =           0.1124     STORAGE         
              STO-SY =        4524.1970                STO-SY =          69.1690     STORAGE         
                 RCH =       23406.5836                   RCH =          71.5068     RCHA            
                 CHD =           0.0000                   CHD =           0.0000     CHD             

            TOTAL IN =       27938.1927              TOTAL IN =         140.7883

          OUT:                                     OUT:
          ----                                     ----
              STO-SS =           4.1836                STO-SS =       2.9040E-02     STORAGE         
              STO-SY =        2782.5632                STO-SY =          19.8985     STORAGE         
                 RCH =           0.0000                   RCH =           0.0000     RCHA            
                 CHD =       25151.5248                   CHD =         120.8596     CHD             

           TOTAL OUT =       27938.2717             TOTAL OUT =         140.7872

            IN - OUT =      -7.9044E-02              IN - OUT =       1.0771E-03

 PERCENT DISCREPANCY =          -0.00     PERCENT DISCREPANCY =           0.00




         TIME SUMMARY AT END OF TIME STEP    3 IN STRESS PERIOD    6
                    SECONDS     MINUTES      HOURS       DAYS        YEARS
                    -----------------------------------------------------------
   TIME STEP LENGTH 2.59200E+05  4320.0      72.000      3.0000     8.21355E-03
 STRESS PERIOD TIME 7.77600E+05  12960.      216.00      9.0000     2.46407E-02
         TOTAL TIME 1.12320E+07 1.87200E+05  3120.0      130.00     0.35592    
 UBDSV1 SAVING           STO-SS ON UNIT   1016 AT TIME STEP      4, STRESS PERIOD      6
 UBDSV1 SAVING           STO-SY ON UNIT   1016 AT TIME STEP      4, STRESS PERIOD      6
 UBDSV1 SAVING     FLOW-JA-FACE ON UNIT   1016 AT TIME STEP      4, STRESS PERIOD      6
 UBDSV06 SAVING              RCH IN MODEL TEST_TRANS       PACKAGE TEST_TRANS      CONNECTED TO MODEL TEST_TRANS       PACKAGE RCHA             ON UNIT   1016 AT TIME STEP      4, STRESS PERIOD      6
 UBDSV06 SAVING              CHD IN MODEL TEST_TRANS       PACKAGE TEST_TRANS      CONNECTED TO MODEL TEST_TRANS       PACKAGE CHD              ON UNIT   1016 AT TIME STEP      4, STRESS PERIOD      6

 HEAD WILL BE SAVED ON UNIT 1017 AT END OF TIME STEP    4, STRESS PERIOD    6


  VOLUME BUDGET FOR ENTIRE MODEL AT END OF TIME STEP    4, STRESS PERIOD   6
  ---------------------------------------------------------------------------------------------------

     CUMULATIVE VOLUME      L**3       RATES FOR THIS TIME STEP      L**3/T          PACKAGE NAME    
     ------------------                 ------------------------                     ----------------

           IN:                                      IN:
           ---                                      ---
              STO-SS =           7.7345                STO-SS =           0.1075     STORAGE         
              STO-SY =        4722.6694                STO-SY =          66.1575     STORAGE         
                 RCH =       23621.1041                   RCH =          71.5068     RCHA            
                 CHD =           0.0000                   CHD =           0.0000     CHD             

            TOTAL IN =       28351.5080              TOTAL IN =         137.7718

          OUT:                                     OUT:
          ----                                     ----
              STO-SS =           4.2354                STO-SS =       1.7265E-02     STORAGE         
              STO-SY =        2817.9252                STO-SY =          11.7873     STORAGE         
                 RCH =           0.0000                   RCH =           0.0000     RCHA            
                 CHD =       25529.4249                   CHD =         125.9667     CHD             

           TOTAL OUT =       28351.5855             TOTAL OUT =         137.7713

            IN - OUT =      -7.7514E-02              IN - OUT =       5.1000E-04

 PERCENT DISCREPANCY =          -0.00     PERCENT DISCREPANCY =           0.00




         TIME SUMMARY AT END OF TIME STEP    4 IN STRESS PERIOD    6
                    SECONDS     MINUTES      HOURS       DAYS        YEARS
                    -----------------------------------------------------------
   TIME STEP LENGTH 2.59200E+05  4320.0      72.000      3.0000     8.21355E-03
 STRESS PERIOD TIME 1.03680E+06  17280.      288.00      12.000     3.28542E-02
         TOTAL TIME 1.14912E+07 1.91520E+05  3192.0      133.00     0.36413    
 UBDSV1 SAVING           STO-SS ON UNIT   1016 AT TIME STEP      5, STRESS PERIOD      6
 UBDSV1 SAVING           STO-SY ON UNIT   1016 AT TIME STEP      5, STRESS PERIOD      6
 UBDSV1 SAVING     FLOW-JA-FACE ON UNIT   1016 AT TIME STEP      5, STRESS PERIOD      6
 UBDSV06 SAVING              RCH IN MODEL TEST_TRANS       PACKAGE TEST_TRANS      CONNECTED TO MODEL TEST_TRANS       PACKAGE RCHA             ON UNIT   1016 AT TIME STEP      5, STRESS PERIOD      6
 UBDSV06 SAVING              CHD IN MODEL TEST_TRANS       PACKAGE TEST_TRANS      CONNECTED TO MODEL TEST_TRANS       PACKAGE CHD              ON UNIT   1016 AT TIME STEP      5, STRESS PERIOD      6

 HEAD WILL BE SAVED ON UNIT 1017 AT END OF TIME STEP    5, STRESS PERIOD    6


  VOLUME BUDGET FOR ENTIRE MODEL AT END OF TIME STEP    5, STRESS PERIOD   6
  ---------------------------------------------------------------------------------------------------

     CUMULATIVE VOLUME      L**3       RATES FOR THIS TIME STEP      L**3/T          PACKAGE NAME    
     ------------------                 ------------------------                     ----------------

           IN:                                      IN:
           ---                                      ---
              STO-SS =           8.0455                STO-SS =           0.1037     STORAGE         
              STO-SY =        4914.2542                STO-SY =          63.8616     STORAGE         
                 RCH =       23835.6246                   RCH =          71.5068     RCHA            
                 CHD =           0.0000                   CHD =           0.0000     CHD             

            TOTAL IN =       28757.9243              TOTAL IN =         135.4721

          OUT:                                     OUT:
          ----                                     ----
              STO-SS =           4.2653                STO-SS =       9.9568E-03     STORAGE         
              STO-SY =        2838.2972                STO-SY =           6.7907     STORAGE         
                 RCH =           0.0000                   RCH =           0.0000     RCHA            
                 CHD =       25915.4371                   CHD =         128.6707     CHD             

           TOTAL OUT =       28757.9996             TOTAL OUT =         135.4714

            IN - OUT =      -7.5311E-02              IN - OUT =       7.3434E-04

 PERCENT DISCREPANCY =          -0.00     PERCENT DISCREPANCY =           0.00




         TIME SUMMARY AT END OF TIME STEP    5 IN STRESS PERIOD    6
                    SECONDS     MINUTES      HOURS       DAYS        YEARS
                    -----------------------------------------------------------
   TIME STEP LENGTH 2.59200E+05  4320.0      72.000      3.0000     8.21355E-03
 STRESS PERIOD TIME 1.29600E+06  21600.      360.00      15.000     4.10678E-02
         TOTAL TIME 1.17504E+07 1.95840E+05  3264.0      136.00     0.37235    
 UBDSV1 SAVING           STO-SS ON UNIT   1016 AT TIME STEP      6, STRESS PERIOD      6
 UBDSV1 SAVING           STO-SY ON UNIT   1016 AT TIME STEP      6, STRESS PERIOD      6
 UBDSV1 SAVING     FLOW-JA-FACE ON UNIT   1016 AT TIME STEP      6, STRESS PERIOD      6
 UBDSV06 SAVING              RCH IN MODEL TEST_TRANS       PACKAGE TEST_TRANS      CONNECTED TO MODEL TEST_TRANS       PACKAGE RCHA             ON UNIT   1016 AT TIME STEP      6, STRESS PERIOD      6
 UBDSV06 SAVING              CHD IN MODEL TEST_TRANS       PACKAGE TEST_TRANS      CONNECTED TO MODEL TEST_TRANS       PACKAGE CHD              ON UNIT   1016 AT TIME STEP      6, STRESS PERIOD      6

 HEAD WILL BE SAVED ON UNIT 1017 AT END OF TIME STEP    6, STRESS PERIOD    6


  VOLUME BUDGET FOR ENTIRE MODEL AT END OF TIME STEP    6, STRESS PERIOD   6
  ---------------------------------------------------------------------------------------------------

     CUMULATIVE VOLUME      L**3       RATES FOR THIS TIME STEP      L**3/T          PACKAGE NAME    
     ------------------                 ------------------------                     ----------------

           IN:                                      IN:
           ---                                      ---
              STO-SS =           8.3476                STO-SS =           0.1007     STORAGE         
              STO-SY =        5100.5572                STO-SY =          62.1010     STORAGE         
                 RCH =       24050.1452                   RCH =          71.5068     RCHA            
                 CHD =           0.0000                   CHD =           0.0000     CHD             

            TOTAL IN =       29159.0500              TOTAL IN =         133.7085

          OUT:                                     OUT:
          ----                                     ----
              STO-SS =           4.2809                STO-SS =       5.1904E-03     STORAGE         
              STO-SY =        2848.9328                STO-SY =           3.5452     STORAGE         
                 RCH =           0.0000                   RCH =           0.0000     RCHA            
                 CHD =       26305.9074                   CHD =         130.1568     CHD             

           TOTAL OUT =       29159.1211             TOTAL OUT =         133.7071

            IN - OUT =      -7.1095E-02              IN - OUT =       1.4054E-03

 PERCENT DISCREPANCY =          -0.00     PERCENT DISCREPANCY =           0.00




         TIME SUMMARY AT END OF TIME STEP    6 IN STRESS PERIOD    6
                    SECONDS     MINUTES      HOURS       DAYS        YEARS
                    -----------------------------------------------------------
   TIME STEP LENGTH 2.59200E+05  4320.0      72.000      3.0000     8.21355E-03
 STRESS PERIOD TIME 1.55520E+06  25920.      432.00      18.000     4.92813E-02
         TOTAL TIME 1.20096E+07 2.00160E+05  3336.0      139.00     0.38056    
 UBDSV1 SAVING           STO-SS ON UNIT   1016 AT TIME STEP      7, STRESS PERIOD      6
 UBDSV1 SAVING           STO-SY ON UNIT   1016 AT TIME STEP      7, STRESS PERIOD      6
 UBDSV1 SAVING     FLOW-JA-FACE ON UNIT   1016 AT TIME STEP      7, STRESS PERIOD      6
 UBDSV06 SAVING              RCH IN MODEL TEST_TRANS       PACKAGE TEST_TRANS      CONNECTED TO MODEL TEST_TRANS       PACKAGE RCHA             ON UNIT   1016 AT TIME STEP      7, STRESS PERIOD      6
 UBDSV06 SAVING              CHD IN MODEL TEST_TRANS       PACKAGE TEST_TRANS      CONNECTED TO MODEL TEST_TRANS       PACKAGE CHD              ON UNIT   1016 AT TIME STEP      7, STRESS PERIOD      6

 HEAD WILL BE SAVED ON UNIT 1017 AT END OF TIME STEP    7, STRESS PERIOD    6


  VOLUME BUDGET FOR ENTIRE MODEL AT END OF TIME STEP    7, STRESS PERIOD   6
  ---------------------------------------------------------------------------------------------------

     CUMULATIVE VOLUME      L**3       RATES FOR THIS TIME STEP      L**3/T          PACKAGE NAME    
     ------------------                 ------------------------                     ----------------

           IN:                                      IN:
           ---                                      ---
              STO-SS =           8.6432                STO-SS =       9.8552E-02     STORAGE         
              STO-SY =        5283.1724                STO-SY =          60.8717     STORAGE         
                 RCH =       24264.6657                   RCH =          71.5068     RCHA            
                 CHD =           0.0000                   CHD =           0.0000     CHD             

            TOTAL IN =       29556.4813              TOTAL IN =         132.4771

          OUT:                                     OUT:
          ----                                     ----
              STO-SS =           4.2876                STO-SS =       2.2391E-03     STORAGE         
              STO-SY =        2853.5381                STO-SY =           1.5351     STORAGE         
                 RCH =           0.0000                   RCH =           0.0000     RCHA            
                 CHD =       26698.7212                   CHD =         130.9379     CHD             

           TOTAL OUT =       29556.5469             TOTAL OUT =         132.4753

            IN - OUT =      -6.5565E-02              IN - OUT =       1.8431E-03

 PERCENT DISCREPANCY =          -0.00     PERCENT DISCREPANCY =           0.00




         TIME SUMMARY AT END OF TIME STEP    7 IN STRESS PERIOD    6
                    SECONDS     MINUTES      HOURS       DAYS        YEARS
                    -----------------------------------------------------------
   TIME STEP LENGTH 2.59200E+05  4320.0      72.000      3.0000     8.21355E-03
 STRESS PERIOD TIME 1.81440E+06  30240.      504.00      21.000     5.74949E-02
         TOTAL TIME 1.22688E+07 2.04480E+05  3408.0      142.00     0.38877    
 UBDSV1 SAVING           STO-SS ON UNIT   1016 AT TIME STEP      8, STRESS PERIOD      6
 UBDSV1 SAVING           STO-SY ON UNIT   1016 AT TIME STEP      8, STRESS PERIOD      6
 UBDSV1 SAVING     FLOW-JA-FACE ON UNIT   1016 AT TIME STEP      8, STRESS PERIOD      6
 UBDSV06 SAVING              RCH IN MODEL TEST_TRANS       PACKAGE TEST_TRANS      CONNECTED TO MODEL TEST_TRANS       PACKAGE RCHA             ON UNIT   1016 AT TIME STEP      8, STRESS PERIOD      6
 UBDSV06 SAVING              CHD IN MODEL TEST_TRANS       PACKAGE TEST_TRANS      CONNECTED TO MODEL TEST_TRANS       PACKAGE CHD              ON UNIT   1016 AT TIME STEP      8, STRESS PERIOD      6

 HEAD WILL BE SAVED ON UNIT 1017 AT END OF TIME STEP    8, STRESS PERIOD    6


  VOLUME BUDGET FOR ENTIRE MODEL AT END OF TIME STEP    8, STRESS PERIOD   6
  ---------------------------------------------------------------------------------------------------

     CUMULATIVE VOLUME      L**3       RATES FOR THIS TIME STEP      L**3/T          PACKAGE NAME    
     ------------------                 ------------------------                     ----------------

           IN:                                      IN:
           ---                                      ---
              STO-SS =           8.9347                STO-SS =       9.7141E-02     STORAGE         
              STO-SY =        5463.5069                STO-SY =          60.1115     STORAGE         
                 RCH =       24479.1863                   RCH =          71.5068     RCHA            
                 CHD =           0.0000                   CHD =           0.0000     CHD             

            TOTAL IN =       29951.6278              TOTAL IN =         131.7155

          OUT:                                     OUT:
          ----                                     ----
              STO-SS =           4.2895                STO-SS =       6.3590E-04     STORAGE         
              STO-SY =        2854.8541                STO-SY =           0.4387     STORAGE         
                 RCH =           0.0000                   RCH =           0.0000     RCHA            
                 CHD =       27092.5434                   CHD =         131.2741     CHD             

           TOTAL OUT =       29951.6870             TOTAL OUT =         131.7134

            IN - OUT =      -5.9195E-02              IN - OUT =       2.1235E-03

 PERCENT DISCREPANCY =          -0.00     PERCENT DISCREPANCY =           0.00




         TIME SUMMARY AT END OF TIME STEP    8 IN STRESS PERIOD    6
                    SECONDS     MINUTES      HOURS       DAYS        YEARS
                    -----------------------------------------------------------
   TIME STEP LENGTH 2.59200E+05  4320.0      72.000      3.0000     8.21355E-03
 STRESS PERIOD TIME 2.07360E+06  34560.      576.00      24.000     6.57084E-02
         TOTAL TIME 1.25280E+07 2.08800E+05  3480.0      145.00     0.39699    
 UBDSV1 SAVING           STO-SS ON UNIT   1016 AT TIME STEP      9, STRESS PERIOD      6
 UBDSV1 SAVING           STO-SY ON UNIT   1016 AT TIME STEP      9, STRESS PERIOD      6
 UBDSV1 SAVING     FLOW-JA-FACE ON UNIT   1016 AT TIME STEP      9, STRESS PERIOD      6
 UBDSV06 SAVING              RCH IN MODEL TEST_TRANS       PACKAGE TEST_TRANS      CONNECTED TO MODEL TEST_TRANS       PACKAGE RCHA             ON UNIT   1016 AT TIME STEP      9, STRESS PERIOD      6
 UBDSV06 SAVING              CHD IN MODEL TEST_TRANS       PACKAGE TEST_TRANS      CONNECTED TO MODEL TEST_TRANS       PACKAGE CHD              ON UNIT   1016 AT TIME STEP      9, STRESS PERIOD      6

 HEAD WILL BE SAVED ON UNIT 1017 AT END OF TIME STEP    9, STRESS PERIOD    6


  VOLUME BUDGET FOR ENTIRE MODEL AT END OF TIME STEP    9, STRESS PERIOD   6
  ---------------------------------------------------------------------------------------------------

     CUMULATIVE VOLUME      L**3       RATES FOR THIS TIME STEP      L**3/T          PACKAGE NAME    
     ------------------                 ------------------------                     ----------------

           IN:                                      IN:
           ---                                      ---
              STO-SS =           9.2236                STO-SS =       9.6300E-02     STORAGE         
              STO-SY =        5642.6715                STO-SY =          59.7216     STORAGE         
                 RCH =       24693.7068                   RCH =          71.5068     RCHA            
                 CHD =           0.0000                   CHD =           0.0000     CHD             

            TOTAL IN =       30345.6019              TOTAL IN =         131.3247

          OUT:                                     OUT:
          ----                                     ----
              STO-SS =           4.2895                STO-SS =       1.5099E-05     STORAGE         
              STO-SY =        2854.8859                STO-SY =       1.0586E-02     STORAGE         
                 RCH =           0.0000                   RCH =           0.0000     RCHA            
                 CHD =       27486.4788                   CHD =         131.3118     CHD             

           TOTAL OUT =       30345.6543             TOTAL OUT =         131.3224

            IN - OUT =      -5.2358E-02              IN - OUT =       2.2789E-03

 PERCENT DISCREPANCY =          -0.00     PERCENT DISCREPANCY =           0.00




         TIME SUMMARY AT END OF TIME STEP    9 IN STRESS PERIOD    6
                    SECONDS     MINUTES      HOURS       DAYS        YEARS
                    -----------------------------------------------------------
   TIME STEP LENGTH 2.59200E+05  4320.0      72.000      3.0000     8.21355E-03
 STRESS PERIOD TIME 2.33280E+06  38880.      648.00      27.000     7.39220E-02
         TOTAL TIME 1.27872E+07 2.13120E+05  3552.0      148.00     0.40520    
 UBDSV1 SAVING           STO-SS ON UNIT   1016 AT TIME STEP     10, STRESS PERIOD      6
 UBDSV1 SAVING           STO-SY ON UNIT   1016 AT TIME STEP     10, STRESS PERIOD      6
 UBDSV1 SAVING     FLOW-JA-FACE ON UNIT   1016 AT TIME STEP     10, STRESS PERIOD      6
 UBDSV06 SAVING              RCH IN MODEL TEST_TRANS       PACKAGE TEST_TRANS      CONNECTED TO MODEL TEST_TRANS       PACKAGE RCHA             ON UNIT   1016 AT TIME STEP     10, STRESS PERIOD      6
 UBDSV06 SAVING              CHD IN MODEL TEST_TRANS       PACKAGE TEST_TRANS      CONNECTED TO MODEL TEST_TRANS       PACKAGE CHD              ON UNIT   1016 AT TIME STEP     10, STRESS PERIOD      6

 HEAD WILL BE SAVED ON UNIT 1017 AT END OF TIME STEP   10, STRESS PERIOD    6


  VOLUME BUDGET FOR ENTIRE MODEL AT END OF TIME STEP   10, STRESS PERIOD   6
  ---------------------------------------------------------------------------------------------------

     CUMULATIVE VOLUME      L**3       RATES FOR THIS TIME STEP      L**3/T          PACKAGE NAME    
     ------------------                 ------------------------                     ----------------

           IN:                                      IN:
           ---                                      ---
              STO-SS =           9.5109                STO-SS =       9.5777E-02     STORAGE         
              STO-SY =        5821.2939                STO-SY =          59.5408     STORAGE         
                 RCH =       24908.2274                   RCH =          71.5068     RCHA            
                 CHD =           0.0000                   CHD =           0.0000     CHD             

            TOTAL IN =       30739.0322              TOTAL IN =         131.1434

          OUT:                                     OUT:
          ----                                     ----
              STO-SS =           4.2895                STO-SS =           0.0000     STORAGE         
              STO-SY =        2854.8859                STO-SY =           0.0000     STORAGE         
                 RCH =           0.0000                   RCH =           0.0000     RCHA            
                 CHD =       27879.9019                   CHD =         131.1410     CHD             

           TOTAL OUT =       30739.0773             TOTAL OUT =         131.1410

            IN - OUT =      -4.5145E-02              IN - OUT =       2.4043E-03

 PERCENT DISCREPANCY =          -0.00     PERCENT DISCREPANCY =           0.00




         TIME SUMMARY AT END OF TIME STEP   10 IN STRESS PERIOD    6
                    SECONDS     MINUTES      HOURS       DAYS        YEARS
                    -----------------------------------------------------------
   TIME STEP LENGTH 2.59200E+05  4320.0      72.000      3.0000     8.21355E-03
 STRESS PERIOD TIME 2.59200E+06  43200.      720.00      30.000     8.21355E-02
         TOTAL TIME 1.30464E+07 2.17440E+05  3624.0      151.00     0.41342    

 OUTPUT CONTROL FOR STRESS PERIOD 7 IS REPEATED USING SETTINGS FROM A PREVIOUS STRESS PERIOD.


 STRESS PERIOD 7 IS TRANSIENT


                 RECHARGE =  0.5479452E-03
 UBDSV1 SAVING           STO-SS ON UNIT   1016 AT TIME STEP      1, STRESS PERIOD      7
 UBDSV1 SAVING           STO-SY ON UNIT   1016 AT TIME STEP      1, STRESS PERIOD      7
 UBDSV1 SAVING     FLOW-JA-FACE ON UNIT   1016 AT TIME STEP      1, STRESS PERIOD      7
 UBDSV06 SAVING              RCH IN MODEL TEST_TRANS       PACKAGE TEST_TRANS      CONNECTED TO MODEL TEST_TRANS       PACKAGE RCHA             ON UNIT   1016 AT TIME STEP      1, STRESS PERIOD      7
 UBDSV06 SAVING              CHD IN MODEL TEST_TRANS       PACKAGE TEST_TRANS      CONNECTED TO MODEL TEST_TRANS       PACKAGE CHD              ON UNIT   1016 AT TIME STEP      1, STRESS PERIOD      7

 HEAD WILL BE SAVED ON UNIT 1017 AT END OF TIME STEP    1, STRESS PERIOD    7


  VOLUME BUDGET FOR ENTIRE MODEL AT END OF TIME STEP    1, STRESS PERIOD   7
  ---------------------------------------------------------------------------------------------------

     CUMULATIVE VOLUME      L**3       RATES FOR THIS TIME STEP      L**3/T          PACKAGE NAME    
     ------------------                 ------------------------                     ----------------

           IN:                                      IN:
           ---                                      ---
              STO-SS =           9.8465                STO-SS =           0.1119     STORAGE         
              STO-SY =        6029.3640                STO-SY =          69.3567     STORAGE         
                 RCH =       25051.2411                   RCH =          47.6712     RCHA            
                 CHD =          58.2744                   CHD =          19.4248     CHD             

            TOTAL IN =       31148.7260              TOTAL IN =         136.5646

          OUT:                                     OUT:
          ----                                     ----
              STO-SS =           4.8847                STO-SS =           0.1984     STORAGE         
              STO-SY =        3263.9805                STO-SY =         136.3649     STORAGE         
                 RCH =           0.0000                   RCH =           0.0000     RCHA            
                 CHD =       27879.9019                   CHD =           0.0000     CHD             

           TOTAL OUT =       31148.7671             TOTAL OUT =         136.5633

            IN - OUT =      -4.1112E-02              IN - OUT =       1.3444E-03

 PERCENT DISCREPANCY =          -0.00     PERCENT DISCREPANCY =           0.00




         TIME SUMMARY AT END OF TIME STEP    1 IN STRESS PERIOD    7
                    SECONDS     MINUTES      HOURS       DAYS        YEARS
                    -----------------------------------------------------------
   TIME STEP LENGTH 2.59200E+05  4320.0      72.000      3.0000     8.21355E-03
 STRESS PERIOD TIME 2.59200E+05  4320.0      72.000      3.0000     8.21355E-03
         TOTAL TIME 1.33056E+07 2.21760E+05  3696.0      154.00     0.42163    
 UBDSV1 SAVING           STO-SS ON UNIT   1016 AT TIME STEP      2, STRESS PERIOD      7
 UBDSV1 SAVING           STO-SY ON UNIT   1016 AT TIME STEP      2, STRESS PERIOD      7
 UBDSV1 SAVING     FLOW-JA-FACE ON UNIT   1016 AT TIME STEP      2, STRESS PERIOD      7
 UBDSV06 SAVING              RCH IN MODEL TEST_TRANS       PACKAGE TEST_TRANS      CONNECTED TO MODEL TEST_TRANS       PACKAGE RCHA             ON UNIT   1016 AT TIME STEP      2, STRESS PERIOD      7
 UBDSV06 SAVING              CHD IN MODEL TEST_TRANS       PACKAGE TEST_TRANS      CONNECTED TO MODEL TEST_TRANS       PACKAGE CHD              ON UNIT   1016 AT TIME STEP      2, STRESS PERIOD      7

 HEAD WILL BE SAVED ON UNIT 1017 AT END OF TIME STEP    2, STRESS PERIOD    7


  VOLUME BUDGET FOR ENTIRE MODEL AT END OF TIME STEP    2, STRESS PERIOD   7
  ---------------------------------------------------------------------------------------------------

     CUMULATIVE VOLUME      L**3       RATES FOR THIS TIME STEP      L**3/T          PACKAGE NAME    
     ------------------                 ------------------------                     ----------------

           IN:                                      IN:
           ---                                      ---
              STO-SS =          10.1560                STO-SS =           0.1031     STORAGE         
              STO-SY =        6221.0058                STO-SY =          63.8806     STORAGE         
                 RCH =       25194.2548                   RCH =          47.6712     RCHA            
                 CHD =          58.2744                   CHD =           0.0000     CHD             

            TOTAL IN =       31483.6909              TOTAL IN =         111.6550

          OUT:                                     OUT:
          ----                                     ----
              STO-SS =           5.2139                STO-SS =           0.1097     STORAGE         
              STO-SY =        3486.7209                STO-SY =          74.2468     STORAGE         
                 RCH =           0.0000                   RCH =           0.0000     RCHA            
                 CHD =       27991.7973                   CHD =          37.2985     CHD             

           TOTAL OUT =       31483.7321             TOTAL OUT =         111.6550

            IN - OUT =      -4.1264E-02              IN - OUT =      -5.0636E-05

 PERCENT DISCREPANCY =          -0.00     PERCENT DISCREPANCY =          -0.00




         TIME SUMMARY AT END OF TIME STEP    2 IN STRESS PERIOD    7
                    SECONDS     MINUTES      HOURS       DAYS        YEARS
                    -----------------------------------------------------------
   TIME STEP LENGTH 2.59200E+05  4320.0      72.000      3.0000     8.21355E-03
 STRESS PERIOD TIME 5.18400E+05  8640.0      144.00      6.0000     1.64271E-02
         TOTAL TIME 1.35648E+07 2.26080E+05  3768.0      157.00     0.42984    
 UBDSV1 SAVING           STO-SS ON UNIT   1016 AT TIME STEP      3, STRESS PERIOD      7
 UBDSV1 SAVING           STO-SY ON UNIT   1016 AT TIME STEP      3, STRESS PERIOD      7
 UBDSV1 SAVING     FLOW-JA-FACE ON UNIT   1016 AT TIME STEP      3, STRESS PERIOD      7
 UBDSV06 SAVING              RCH IN MODEL TEST_TRANS       PACKAGE TEST_TRANS      CONNECTED TO MODEL TEST_TRANS       PACKAGE RCHA             ON UNIT   1016 AT TIME STEP      3, STRESS PERIOD      7
 UBDSV06 SAVING              CHD IN MODEL TEST_TRANS       PACKAGE TEST_TRANS      CONNECTED TO MODEL TEST_TRANS       PACKAGE CHD              ON UNIT   1016 AT TIME STEP      3, STRESS PERIOD      7

 HEAD WILL BE SAVED ON UNIT 1017 AT END OF TIME STEP    3, STRESS PERIOD    7


  VOLUME BUDGET FOR ENTIRE MODEL AT END OF TIME STEP    3, STRESS PERIOD   7
  ---------------------------------------------------------------------------------------------------

     CUMULATIVE VOLUME      L**3       RATES FOR THIS TIME STEP      L**3/T          PACKAGE NAME    
     ------------------                 ------------------------                     ----------------

           IN:                                      IN:
           ---                                      ---
              STO-SS =          10.4434                STO-SS =       9.5824E-02     STORAGE         
              STO-SY =        6398.9895                STO-SY =          59.3279     STORAGE         
                 RCH =       25337.2685                   RCH =          47.6712     RCHA            
                 CHD =          58.2744                   CHD =           0.0000     CHD             

            TOTAL IN =       31804.9758              TOTAL IN =         107.0950

          OUT:                                     OUT:
          ----                                     ----
              STO-SS =           5.4308                STO-SS =       7.2297E-02     STORAGE         
              STO-SY =        3632.3194                STO-SY =          48.5328     STORAGE         
                 RCH =           0.0000                   RCH =           0.0000     RCHA            
                 CHD =       28167.2686                   CHD =          58.4904     CHD             

           TOTAL OUT =       31805.0188             TOTAL OUT =         107.0956

            IN - OUT =      -4.3085E-02              IN - OUT =      -6.0690E-04

 PERCENT DISCREPANCY =          -0.00     PERCENT DISCREPANCY =          -0.00




         TIME SUMMARY AT END OF TIME STEP    3 IN STRESS PERIOD    7
                    SECONDS     MINUTES      HOURS       DAYS        YEARS
                    -----------------------------------------------------------
   TIME STEP LENGTH 2.59200E+05  4320.0      72.000      3.0000     8.21355E-03
 STRESS PERIOD TIME 7.77600E+05  12960.      216.00      9.0000     2.46407E-02
         TOTAL TIME 1.38240E+07 2.30400E+05  3840.0      160.00     0.43806    
 UBDSV1 SAVING           STO-SS ON UNIT   1016 AT TIME STEP      4, STRESS PERIOD      7
 UBDSV1 SAVING           STO-SY ON UNIT   1016 AT TIME STEP      4, STRESS PERIOD      7
 UBDSV1 SAVING     FLOW-JA-FACE ON UNIT   1016 AT TIME STEP      4, STRESS PERIOD      7
 UBDSV06 SAVING              RCH IN MODEL TEST_TRANS       PACKAGE TEST_TRANS      CONNECTED TO MODEL TEST_TRANS       PACKAGE RCHA             ON UNIT   1016 AT TIME STEP      4, STRESS PERIOD      7
 UBDSV06 SAVING              CHD IN MODEL TEST_TRANS       PACKAGE TEST_TRANS      CONNECTED TO MODEL TEST_TRANS       PACKAGE CHD              ON UNIT   1016 AT TIME STEP      4, STRESS PERIOD      7

 HEAD WILL BE SAVED ON UNIT 1017 AT END OF TIME STEP    4, STRESS PERIOD    7


  VOLUME BUDGET FOR ENTIRE MODEL AT END OF TIME STEP    4, STRESS PERIOD   7
  ---------------------------------------------------------------------------------------------------

     CUMULATIVE VOLUME      L**3       RATES FOR THIS TIME STEP      L**3/T          PACKAGE NAME    
     ------------------                 ------------------------                     ----------------

           IN:                                      IN:
           ---                                      ---
              STO-SS =          10.7127                STO-SS =       8.9763E-02     STORAGE         
              STO-SY =        6565.7442                STO-SY =          55.5849     STORAGE         
                 RCH =       25480.2822                   RCH =          47.6712     RCHA            
                 CHD =          58.2744                   CHD =           0.0000     CHD             

            TOTAL IN =       32115.0135              TOTAL IN =         103.3459

          OUT:                                     OUT:
          ----                                     ----
              STO-SS =           5.5843                STO-SS =       5.1172E-02     STORAGE         
              STO-SY =        3734.8632                STO-SY =          34.1813     STORAGE         
                 RCH =           0.0000                   RCH =           0.0000     RCHA            
                 CHD =       28374.6110                   CHD =          69.1141     CHD             

           TOTAL OUT =       32115.0586             TOTAL OUT =         103.3466

            IN - OUT =      -4.5054E-02              IN - OUT =      -6.5640E-04

 PERCENT DISCREPANCY =          -0.00     PERCENT DISCREPANCY =          -0.00




         TIME SUMMARY AT END OF TIME STEP    4 IN STRESS PERIOD    7
                    SECONDS     MINUTES      HOURS       DAYS        YEARS
                    -----------------------------------------------------------
   TIME STEP LENGTH 2.59200E+05  4320.0      72.000      3.0000     8.21355E-03
 STRESS PERIOD TIME 1.03680E+06  17280.      288.00      12.000     3.28542E-02
         TOTAL TIME 1.40832E+07 2.34720E+05  3912.0      163.00     0.44627    
 UBDSV1 SAVING           STO-SS ON UNIT   1016 AT TIME STEP      5, STRESS PERIOD      7
 UBDSV1 SAVING           STO-SY ON UNIT   1016 AT TIME STEP      5, STRESS PERIOD      7
 UBDSV1 SAVING     FLOW-JA-FACE ON UNIT   1016 AT TIME STEP      5, STRESS PERIOD      7
 UBDSV06 SAVING              RCH IN MODEL TEST_TRANS       PACKAGE TEST_TRANS      CONNECTED TO MODEL TEST_TRANS       PACKAGE RCHA             ON UNIT   1016 AT TIME STEP      5, STRESS PERIOD      7
 UBDSV06 SAVING              CHD IN MODEL TEST_TRANS       PACKAGE TEST_TRANS      CONNECTED TO MODEL TEST_TRANS       PACKAGE CHD              ON UNIT   1016 AT TIME STEP      5, STRESS PERIOD      7

 HEAD WILL BE SAVED ON UNIT 1017 AT END OF TIME STEP    5, STRESS PERIOD    7


  VOLUME BUDGET FOR ENTIRE MODEL AT END OF TIME STEP    5, STRESS PERIOD   7
  ---------------------------------------------------------------------------------------------------

     CUMULATIVE VOLUME      L**3       RATES FOR THIS TIME STEP      L**3/T          PACKAGE NAME    
     ------------------                 ------------------------                     ----------------

           IN:                                      IN:
           ---                                      ---
              STO-SS =          10.9662                STO-SS =       8.4492E-02     STORAGE         
              STO-SY =        6722.7707                STO-SY =          52.3421     STORAGE         
                 RCH =       25623.2959                   RCH =          47.6712     RCHA            
                 CHD =          58.2744                   CHD =           0.0000     CHD             

            TOTAL IN =       32415.3071              TOTAL IN =         100.0979

          OUT:                                     OUT:
          ----                                     ----
              STO-SS =           5.6955                STO-SS =       3.7044E-02     STORAGE         
              STO-SY =        3808.8639                STO-SY =          24.6669     STORAGE         
                 RCH =           0.0000                   RCH =           0.0000     RCHA            
                 CHD =       28600.7995                   CHD =          75.3961     CHD             

           TOTAL OUT =       32415.3588             TOTAL OUT =         100.1001

            IN - OUT =      -5.1735E-02              IN - OUT =      -2.2270E-03

 PERCENT DISCREPANCY =          -0.00     PERCENT DISCREPANCY =          -0.00




         TIME SUMMARY AT END OF TIME STEP    5 IN STRESS PERIOD    7
                    SECONDS     MINUTES      HOURS       DAYS        YEARS
                    -----------------------------------------------------------
   TIME STEP LENGTH 2.59200E+05  4320.0      72.000      3.0000     8.21355E-03
 STRESS PERIOD TIME 1.29600E+06  21600.      360.00      15.000     4.10678E-02
         TOTAL TIME 1.43424E+07 2.39040E+05  3984.0      166.00     0.45448    
 UBDSV1 SAVING           STO-SS ON UNIT   1016 AT TIME STEP      6, STRESS PERIOD      7
 UBDSV1 SAVING           STO-SY ON UNIT   1016 AT TIME STEP      6, STRESS PERIOD      7
 UBDSV1 SAVING     FLOW-JA-FACE ON UNIT   1016 AT TIME STEP      6, STRESS PERIOD      7
 UBDSV06 SAVING              RCH IN MODEL TEST_TRANS       PACKAGE TEST_TRANS      CONNECTED TO MODEL TEST_TRANS       PACKAGE RCHA             ON UNIT   1016 AT TIME STEP      6, STRESS PERIOD      7
 UBDSV06 SAVING              CHD IN MODEL TEST_TRANS       PACKAGE TEST_TRANS      CONNECTED TO MODEL TEST_TRANS       PACKAGE CHD              ON UNIT   1016 AT TIME STEP      6, STRESS PERIOD      7

 HEAD WILL BE SAVED ON UNIT 1017 AT END OF TIME STEP    6, STRESS PERIOD    7


  VOLUME BUDGET FOR ENTIRE MODEL AT END OF TIME STEP    6, STRESS PERIOD   7
  ---------------------------------------------------------------------------------------------------

     CUMULATIVE VOLUME      L**3       RATES FOR THIS TIME STEP      L**3/T          PACKAGE NAME    
     ------------------                 ------------------------                     ----------------

           IN:                                      IN:
           ---                                      ---
              STO-SS =          11.2064                STO-SS =       8.0071E-02     STORAGE         
              STO-SY =        6871.6740                STO-SY =          49.6344     STORAGE         
                 RCH =       25766.3096                   RCH =          47.6712     RCHA            
                 CHD =          58.2744                   CHD =           0.0000     CHD             

            TOTAL IN =       32707.4644              TOTAL IN =          97.3858

          OUT:                                     OUT:
          ----                                     ----
              STO-SS =           5.7763                STO-SS =       2.6935E-02     STORAGE         
              STO-SY =        3862.5674                STO-SY =          17.9012     STORAGE         
                 RCH =           0.0000                   RCH =           0.0000     RCHA            
                 CHD =       28839.1782                   CHD =          79.4596     CHD             

           TOTAL OUT =       32707.5219             TOTAL OUT =          97.3877

            IN - OUT =      -5.7524E-02              IN - OUT =      -1.9296E-03

 PERCENT DISCREPANCY =          -0.00     PERCENT DISCREPANCY =          -0.00




         TIME SUMMARY AT END OF TIME STEP    6 IN STRESS PERIOD    7
                    SECONDS     MINUTES      HOURS       DAYS        YEARS
                    -----------------------------------------------------------
   TIME STEP LENGTH 2.59200E+05  4320.0      72.000      3.0000     8.21355E-03
 STRESS PERIOD TIME 1.55520E+06  25920.      432.00      18.000     4.92813E-02
         TOTAL TIME 1.46016E+07 2.43360E+05  4056.0      169.00     0.46270    
 UBDSV1 SAVING           STO-SS ON UNIT   1016 AT TIME STEP      7, STRESS PERIOD      7
 UBDSV1 SAVING           STO-SY ON UNIT   1016 AT TIME STEP      7, STRESS PERIOD      7
 UBDSV1 SAVING     FLOW-JA-FACE ON UNIT   1016 AT TIME STEP      7, STRESS PERIOD      7
 UBDSV06 SAVING              RCH IN MODEL TEST_TRANS       PACKAGE TEST_TRANS      CONNECTED TO MODEL TEST_TRANS       PACKAGE RCHA             ON UNIT   1016 AT TIME STEP      7, STRESS PERIOD      7
 UBDSV06 SAVING              CHD IN MODEL TEST_TRANS       PACKAGE TEST_TRANS      CONNECTED TO MODEL TEST_TRANS       PACKAGE CHD              ON UNIT   1016 AT TIME STEP      7, STRESS PERIOD      7

 HEAD WILL BE SAVED ON UNIT 1017 AT END OF TIME STEP    7, STRESS PERIOD    7


  VOLUME BUDGET FOR ENTIRE MODEL AT END OF TIME STEP    7, STRESS PERIOD   7
  ---------------------------------------------------------------------------------------------------

     CUMULATIVE VOLUME      L**3       RATES FOR THIS TIME STEP      L**3/T          PACKAGE NAME    
     ------------------                 ------------------------                     ----------------

           IN:                                      IN:
           ---                                      ---
              STO-SS =          11.4356                STO-SS =       7.6399E-02     STORAGE         
              STO-SY =        7013.8641                STO-SY =          47.3967     STORAGE         
                 RCH =       25909.3233                   RCH =          47.6712     RCHA            
                 CHD =          58.2744                   CHD =           0.0000     CHD             

            TOTAL IN =       32992.8973              TOTAL IN =          95.1443

          OUT:                                     OUT:
          ----                                     ----
              STO-SS =           5.8346                STO-SS =       1.9438E-02     STORAGE         
              STO-SY =        3901.2812                STO-SY =          12.9046     STORAGE         
                 RCH =           0.0000                   RCH =           0.0000     RCHA            
                 CHD =       29085.8424                   CHD =          82.2214     CHD             

           TOTAL OUT =       32992.9582             TOTAL OUT =          95.1454

            IN - OUT =      -6.0874E-02              IN - OUT =      -1.1167E-03

 PERCENT DISCREPANCY =          -0.00     PERCENT DISCREPANCY =          -0.00




         TIME SUMMARY AT END OF TIME STEP    7 IN STRESS PERIOD    7
                    SECONDS     MINUTES      HOURS       DAYS        YEARS
                    -----------------------------------------------------------
   TIME STEP LENGTH 2.59200E+05  4320.0      72.000      3.0000     8.21355E-03
 STRESS PERIOD TIME 1.81440E+06  30240.      504.00      21.000     5.74949E-02
         TOTAL TIME 1.48608E+07 2.47680E+05  4128.0      172.00     0.47091    
 UBDSV1 SAVING           STO-SS ON UNIT   1016 AT TIME STEP      8, STRESS PERIOD      7
 UBDSV1 SAVING           STO-SY ON UNIT   1016 AT TIME STEP      8, STRESS PERIOD      7
 UBDSV1 SAVING     FLOW-JA-FACE ON UNIT   1016 AT TIME STEP      8, STRESS PERIOD      7
 UBDSV06 SAVING              RCH IN MODEL TEST_TRANS       PACKAGE TEST_TRANS      CONNECTED TO MODEL TEST_TRANS       PACKAGE RCHA             ON UNIT   1016 AT TIME STEP      8, STRESS PERIOD      7
 UBDSV06 SAVING              CHD IN MODEL TEST_TRANS       PACKAGE TEST_TRANS      CONNECTED TO MODEL TEST_TRANS       PACKAGE CHD              ON UNIT   1016 AT TIME STEP      8, STRESS PERIOD      7

 HEAD WILL BE SAVED ON UNIT 1017 AT END OF TIME STEP    8, STRESS PERIOD    7


  VOLUME BUDGET FOR ENTIRE MODEL AT END OF TIME STEP    8, STRESS PERIOD   7
  ---------------------------------------------------------------------------------------------------

     CUMULATIVE VOLUME      L**3       RATES FOR THIS TIME STEP      L**3/T          PACKAGE NAME    
     ------------------                 ------------------------                     ----------------

           IN:                                      IN:
           ---                                      ---
              STO-SS =          11.6556                STO-SS =       7.3333E-02     STORAGE         
              STO-SY =        7150.4767                STO-SY =          45.5375     STORAGE         
                 RCH =       26052.3370                   RCH =          47.6712     RCHA            
                 CHD =          58.2744                   CHD =           0.0000     CHD             

            TOTAL IN =       33272.7437              TOTAL IN =          93.2821

          OUT:                                     OUT:
          ----                                     ----
              STO-SS =           5.8758                STO-SS =       1.3744E-02     STORAGE         
              STO-SY =        3928.6460                STO-SY =           9.1216     STORAGE         
                 RCH =           0.0000                   RCH =           0.0000     RCHA            
                 CHD =       29338.2844                   CHD =          84.1473     CHD             

           TOTAL OUT =       33272.8062             TOTAL OUT =          93.2827

            IN - OUT =      -6.2519E-02              IN - OUT =      -5.4844E-04

 PERCENT DISCREPANCY =          -0.00     PERCENT DISCREPANCY =          -0.00




         TIME SUMMARY AT END OF TIME STEP    8 IN STRESS PERIOD    7
                    SECONDS     MINUTES      HOURS       DAYS        YEARS
                    -----------------------------------------------------------
   TIME STEP LENGTH 2.59200E+05  4320.0      72.000      3.0000     8.21355E-03
 STRESS PERIOD TIME 2.07360E+06  34560.      576.00      24.000     6.57084E-02
         TOTAL TIME 1.51200E+07 2.52000E+05  4200.0      175.00     0.47912    
 UBDSV1 SAVING           STO-SS ON UNIT   1016 AT TIME STEP      9, STRESS PERIOD      7
 UBDSV1 SAVING           STO-SY ON UNIT   1016 AT TIME STEP      9, STRESS PERIOD      7
 UBDSV1 SAVING     FLOW-JA-FACE ON UNIT   1016 AT TIME STEP      9, STRESS PERIOD      7
 UBDSV06 SAVING              RCH IN MODEL TEST_TRANS       PACKAGE TEST_TRANS      CONNECTED TO MODEL TEST_TRANS       PACKAGE RCHA             ON UNIT   1016 AT TIME STEP      9, STRESS PERIOD      7
 UBDSV06 SAVING              CHD IN MODEL TEST_TRANS       PACKAGE TEST_TRANS      CONNECTED TO MODEL TEST_TRANS       PACKAGE CHD              ON UNIT   1016 AT TIME STEP      9, STRESS PERIOD      7

 HEAD WILL BE SAVED ON UNIT 1017 AT END OF TIME STEP    9, STRESS PERIOD    7


  VOLUME BUDGET FOR ENTIRE MODEL AT END OF TIME STEP    9, STRESS PERIOD   7
  ---------------------------------------------------------------------------------------------------

     CUMULATIVE VOLUME      L**3       RATES FOR THIS TIME STEP      L**3/T          PACKAGE NAME    
     ------------------                 ------------------------                     ----------------

           IN:                                      IN:
           ---                                      ---
              STO-SS =          11.8678                STO-SS =       7.0740E-02     STORAGE         
              STO-SY =        7282.3912                STO-SY =          43.9715     STORAGE         
                 RCH =       26195.3507                   RCH =          47.6712     RCHA            
                 CHD =          58.2744                   CHD =           0.0000     CHD             

            TOTAL IN =       33547.8841              TOTAL IN =          91.7135

          OUT:                                     OUT:
          ----                                     ----
              STO-SS =           5.9038                STO-SS =       9.3414E-03     STORAGE         
              STO-SY =        3947.2541                STO-SY =           6.2027     STORAGE         
                 RCH =           0.0000                   RCH =           0.0000     RCHA            
                 CHD =       29594.7890                   CHD =          85.5016     CHD             

           TOTAL OUT =       33547.9470             TOTAL OUT =          91.7136

            IN - OUT =      -6.2884E-02              IN - OUT =      -1.2148E-04

 PERCENT DISCREPANCY =          -0.00     PERCENT DISCREPANCY =          -0.00




         TIME SUMMARY AT END OF TIME STEP    9 IN STRESS PERIOD    7
                    SECONDS     MINUTES      HOURS       DAYS        YEARS
                    -----------------------------------------------------------
   TIME STEP LENGTH 2.59200E+05  4320.0      72.000      3.0000     8.21355E-03
 STRESS PERIOD TIME 2.33280E+06  38880.      648.00      27.000     7.39220E-02
         TOTAL TIME 1.53792E+07 2.56320E+05  4272.0      178.00     0.48734    
 UBDSV1 SAVING           STO-SS ON UNIT   1016 AT TIME STEP     10, STRESS PERIOD      7
 UBDSV1 SAVING           STO-SY ON UNIT   1016 AT TIME STEP     10, STRESS PERIOD      7
 UBDSV1 SAVING     FLOW-JA-FACE ON UNIT   1016 AT TIME STEP     10, STRESS PERIOD      7
 UBDSV06 SAVING              RCH IN MODEL TEST_TRANS       PACKAGE TEST_TRANS      CONNECTED TO MODEL TEST_TRANS       PACKAGE RCHA             ON UNIT   1016 AT TIME STEP     10, STRESS PERIOD      7
 UBDSV06 SAVING              CHD IN MODEL TEST_TRANS       PACKAGE TEST_TRANS      CONNECTED TO MODEL TEST_TRANS       PACKAGE CHD              ON UNIT   1016 AT TIME STEP     10, STRESS PERIOD      7

 HEAD WILL BE SAVED ON UNIT 1017 AT END OF TIME STEP   10, STRESS PERIOD    7


  VOLUME BUDGET FOR ENTIRE MODEL AT END OF TIME STEP   10, STRESS PERIOD   7
  ---------------------------------------------------------------------------------------------------

     CUMULATIVE VOLUME      L**3       RATES FOR THIS TIME STEP      L**3/T          PACKAGE NAME    
     ------------------                 ------------------------                     ----------------

           IN:                                      IN:
           ---                                      ---
              STO-SS =          12.0739                STO-SS =       6.8678E-02     STORAGE         
              STO-SY =        7410.6073                STO-SY =          42.7387     STORAGE         
                 RCH =       26338.3644                   RCH =          47.6712     RCHA            
                 CHD =          58.2744                   CHD =           0.0000     CHD             

            TOTAL IN =       33819.3199              TOTAL IN =          90.4786

          OUT:                                     OUT:
          ----                                     ----
              STO-SS =           5.9220                STO-SS =       6.0564E-03     STORAGE         
              STO-SY =        3959.3310                STO-SY =           4.0256     STORAGE         
                 RCH =           0.0000                   RCH =           0.0000     RCHA            
                 CHD =       29854.1292                   CHD =          86.4467     CHD             

           TOTAL OUT =       33819.3822             TOTAL OUT =          90.4784

            IN - OUT =      -6.2275E-02              IN - OUT =       2.0302E-04

 PERCENT DISCREPANCY =          -0.00     PERCENT DISCREPANCY =           0.00




         TIME SUMMARY AT END OF TIME STEP   10 IN STRESS PERIOD    7
                    SECONDS     MINUTES      HOURS       DAYS        YEARS
                    -----------------------------------------------------------
   TIME STEP LENGTH 2.59200E+05  4320.0      72.000      3.0000     8.21355E-03
 STRESS PERIOD TIME 2.59200E+06  43200.      720.00      30.000     8.21355E-02
         TOTAL TIME 1.56384E+07 2.60640E+05  4344.0      181.00     0.49555    

 OUTPUT CONTROL FOR STRESS PERIOD 8 IS REPEATED USING SETTINGS FROM A PREVIOUS STRESS PERIOD.


 STRESS PERIOD 8 IS TRANSIENT


                 RECHARGE =  0.1095890E-02
 UBDSV1 SAVING           STO-SS ON UNIT   1016 AT TIME STEP      1, STRESS PERIOD      8
 UBDSV1 SAVING           STO-SY ON UNIT   1016 AT TIME STEP      1, STRESS PERIOD      8
 UBDSV1 SAVING     FLOW-JA-FACE ON UNIT   1016 AT TIME STEP      1, STRESS PERIOD      8
 UBDSV06 SAVING              RCH IN MODEL TEST_TRANS       PACKAGE TEST_TRANS      CONNECTED TO MODEL TEST_TRANS       PACKAGE RCHA             ON UNIT   1016 AT TIME STEP      1, STRESS PERIOD      8
 UBDSV06 SAVING              CHD IN MODEL TEST_TRANS       PACKAGE TEST_TRANS      CONNECTED TO MODEL TEST_TRANS       PACKAGE CHD              ON UNIT   1016 AT TIME STEP      1, STRESS PERIOD      8

 HEAD WILL BE SAVED ON UNIT 1017 AT END OF TIME STEP    1, STRESS PERIOD    8


  VOLUME BUDGET FOR ENTIRE MODEL AT END OF TIME STEP    1, STRESS PERIOD   8
  ---------------------------------------------------------------------------------------------------

     CUMULATIVE VOLUME      L**3       RATES FOR THIS TIME STEP      L**3/T          PACKAGE NAME    
     ------------------                 ------------------------                     ----------------

           IN:                                      IN:
           ---                                      ---
              STO-SS =          12.8515                STO-SS =           0.2592     STORAGE         
              STO-SY =        7935.7791                STO-SY =         175.0572     STORAGE         
                 RCH =       26624.3917                   RCH =          95.3424     RCHA            
                 CHD =          58.2744                   CHD =           0.0000     CHD             

            TOTAL IN =       34631.2966              TOTAL IN =         270.6589

          OUT:                                     OUT:
          ----                                     ----
              STO-SS =           5.9343                STO-SS =       4.0839E-03     STORAGE         
              STO-SY =        3967.1866                STO-SY =           2.6185     STORAGE         
                 RCH =           0.0000                   RCH =           0.0000     RCHA            
                 CHD =       30658.2409                   CHD =         268.0372     CHD             

           TOTAL OUT =       34631.3618             TOTAL OUT =         270.6599

            IN - OUT =      -6.5153E-02              IN - OUT =      -9.5949E-04

 PERCENT DISCREPANCY =          -0.00     PERCENT DISCREPANCY =          -0.00




         TIME SUMMARY AT END OF TIME STEP    1 IN STRESS PERIOD    8
                    SECONDS     MINUTES      HOURS       DAYS        YEARS
                    -----------------------------------------------------------
   TIME STEP LENGTH 2.59200E+05  4320.0      72.000      3.0000     8.21355E-03
 STRESS PERIOD TIME 2.59200E+05  4320.0      72.000      3.0000     8.21355E-03
         TOTAL TIME 1.58976E+07 2.64960E+05  4416.0      184.00     0.50376    
 UBDSV1 SAVING           STO-SS ON UNIT   1016 AT TIME STEP      2, STRESS PERIOD      8
 UBDSV1 SAVING           STO-SY ON UNIT   1016 AT TIME STEP      2, STRESS PERIOD      8
 UBDSV1 SAVING     FLOW-JA-FACE ON UNIT   1016 AT TIME STEP      2, STRESS PERIOD      8
 UBDSV06 SAVING              RCH IN MODEL TEST_TRANS       PACKAGE TEST_TRANS      CONNECTED TO MODEL TEST_TRANS       PACKAGE RCHA             ON UNIT   1016 AT TIME STEP      2, STRESS PERIOD      8
 UBDSV06 SAVING              CHD IN MODEL TEST_TRANS       PACKAGE TEST_TRANS      CONNECTED TO MODEL TEST_TRANS       PACKAGE CHD              ON UNIT   1016 AT TIME STEP      2, STRESS PERIOD      8

 HEAD WILL BE SAVED ON UNIT 1017 AT END OF TIME STEP    2, STRESS PERIOD    8


  VOLUME BUDGET FOR ENTIRE MODEL AT END OF TIME STEP    2, STRESS PERIOD   8
  ---------------------------------------------------------------------------------------------------

     CUMULATIVE VOLUME      L**3       RATES FOR THIS TIME STEP      L**3/T          PACKAGE NAME    
     ------------------                 ------------------------                     ----------------

           IN:                                      IN:
           ---                                      ---
              STO-SS =          13.3319                STO-SS =           0.1601     STORAGE         
              STO-SY =        8257.7823                STO-SY =         107.3344     STORAGE         
                 RCH =       26910.4190                   RCH =          95.3424     RCHA            
                 CHD =          58.2744                   CHD =           0.0000     CHD             

            TOTAL IN =       35239.8076              TOTAL IN =         202.8370

          OUT:                                     OUT:
          ----                                     ----
              STO-SS =           5.9343                STO-SS =           0.0000     STORAGE         
              STO-SY =        3967.1866                STO-SY =           0.0000     STORAGE         
                 RCH =           0.0000                   RCH =           0.0000     RCHA            
                 CHD =       31266.7587                   CHD =         202.8393     CHD             

           TOTAL OUT =       35239.8796             TOTAL OUT =         202.8393

            IN - OUT =      -7.2040E-02              IN - OUT =      -2.2956E-03

 PERCENT DISCREPANCY =          -0.00     PERCENT DISCREPANCY =          -0.00




         TIME SUMMARY AT END OF TIME STEP    2 IN STRESS PERIOD    8
                    SECONDS     MINUTES      HOURS       DAYS        YEARS
                    -----------------------------------------------------------
   TIME STEP LENGTH 2.59200E+05  4320.0      72.000      3.0000     8.21355E-03
 STRESS PERIOD TIME 5.18400E+05  8640.0      144.00      6.0000     1.64271E-02
         TOTAL TIME 1.61568E+07 2.69280E+05  4488.0      187.00     0.51198    
 UBDSV1 SAVING           STO-SS ON UNIT   1016 AT TIME STEP      3, STRESS PERIOD      8
 UBDSV1 SAVING           STO-SY ON UNIT   1016 AT TIME STEP      3, STRESS PERIOD      8
 UBDSV1 SAVING     FLOW-JA-FACE ON UNIT   1016 AT TIME STEP      3, STRESS PERIOD      8
 UBDSV06 SAVING              RCH IN MODEL TEST_TRANS       PACKAGE TEST_TRANS      CONNECTED TO MODEL TEST_TRANS       PACKAGE RCHA             ON UNIT   1016 AT TIME STEP      3, STRESS PERIOD      8
 UBDSV06 SAVING              CHD IN MODEL TEST_TRANS       PACKAGE TEST_TRANS      CONNECTED TO MODEL TEST_TRANS       PACKAGE CHD              ON UNIT   1016 AT TIME STEP      3, STRESS PERIOD      8

 HEAD WILL BE SAVED ON UNIT 1017 AT END OF TIME STEP    3, STRESS PERIOD    8


  VOLUME BUDGET FOR ENTIRE MODEL AT END OF TIME STEP    3, STRESS PERIOD   8
  ---------------------------------------------------------------------------------------------------

     CUMULATIVE VOLUME      L**3       RATES FOR THIS TIME STEP      L**3/T          PACKAGE NAME    
     ------------------                 ------------------------                     ----------------

           IN:                                      IN:
           ---                                      ---
              STO-SS =          13.7036                STO-SS =           0.1239     STORAGE         
              STO-SY =        8504.5412                STO-SY =          82.2529     STORAGE         
                 RCH =       27196.4462                   RCH =          95.3424     RCHA            
                 CHD =          58.2744                   CHD =           0.0000     CHD             

            TOTAL IN =       35772.9654              TOTAL IN =         177.7193

          OUT:                                     OUT:
          ----                                     ----
              STO-SS =           5.9343                STO-SS =           0.0000     STORAGE         
              STO-SY =        3967.1866                STO-SY =           0.0000     STORAGE         
                 RCH =           0.0000                   RCH =           0.0000     RCHA            
                 CHD =       31799.9096                   CHD =         177.7170     CHD             

           TOTAL OUT =       35773.0305             TOTAL OUT =         177.7170

            IN - OUT =      -6.5098E-02              IN - OUT =       2.3139E-03

 PERCENT DISCREPANCY =          -0.00     PERCENT DISCREPANCY =           0.00




         TIME SUMMARY AT END OF TIME STEP    3 IN STRESS PERIOD    8
                    SECONDS     MINUTES      HOURS       DAYS        YEARS
                    -----------------------------------------------------------
   TIME STEP LENGTH 2.59200E+05  4320.0      72.000      3.0000     8.21355E-03
 STRESS PERIOD TIME 7.77600E+05  12960.      216.00      9.0000     2.46407E-02
         TOTAL TIME 1.64160E+07 2.73600E+05  4560.0      190.00     0.52019    
 UBDSV1 SAVING           STO-SS ON UNIT   1016 AT TIME STEP      4, STRESS PERIOD      8
 UBDSV1 SAVING           STO-SY ON UNIT   1016 AT TIME STEP      4, STRESS PERIOD      8
 UBDSV1 SAVING     FLOW-JA-FACE ON UNIT   1016 AT TIME STEP      4, STRESS PERIOD      8
 UBDSV06 SAVING              RCH IN MODEL TEST_TRANS       PACKAGE TEST_TRANS      CONNECTED TO MODEL TEST_TRANS       PACKAGE RCHA             ON UNIT   1016 AT TIME STEP      4, STRESS PERIOD      8
 UBDSV06 SAVING              CHD IN MODEL TEST_TRANS       PACKAGE TEST_TRANS      CONNECTED TO MODEL TEST_TRANS       PACKAGE CHD              ON UNIT   1016 AT TIME STEP      4, STRESS PERIOD      8

 HEAD WILL BE SAVED ON UNIT 1017 AT END OF TIME STEP    4, STRESS PERIOD    8


  VOLUME BUDGET FOR ENTIRE MODEL AT END OF TIME STEP    4, STRESS PERIOD   8
  ---------------------------------------------------------------------------------------------------

     CUMULATIVE VOLUME      L**3       RATES FOR THIS TIME STEP      L**3/T          PACKAGE NAME    
     ------------------                 ------------------------                     ----------------

           IN:                                      IN:
           ---                                      ---
              STO-SS =          14.0189                STO-SS =           0.1051     STORAGE         
              STO-SY =        8712.2834                STO-SY =          69.2474     STORAGE         
                 RCH =       27482.4735                   RCH =          95.3424     RCHA            
                 CHD =          58.2744                   CHD =           0.0000     CHD             

            TOTAL IN =       36267.0502              TOTAL IN =         164.6949

          OUT:                                     OUT:
          ----                                     ----
              STO-SS =           5.9343                STO-SS =           0.0000     STORAGE         
              STO-SY =        3967.1866                STO-SY =           0.0000     STORAGE         
                 RCH =           0.0000                   RCH =           0.0000     RCHA            
                 CHD =       32293.9827                   CHD =         164.6910     CHD             

           TOTAL OUT =       36267.1036             TOTAL OUT =         164.6910

            IN - OUT =      -5.3448E-02              IN - OUT =       3.8832E-03

 PERCENT DISCREPANCY =          -0.00     PERCENT DISCREPANCY =           0.00




         TIME SUMMARY AT END OF TIME STEP    4 IN STRESS PERIOD    8
                    SECONDS     MINUTES      HOURS       DAYS        YEARS
                    -----------------------------------------------------------
   TIME STEP LENGTH 2.59200E+05  4320.0      72.000      3.0000     8.21355E-03
 STRESS PERIOD TIME 1.03680E+06  17280.      288.00      12.000     3.28542E-02
         TOTAL TIME 1.66752E+07 2.77920E+05  4632.0      193.00     0.52841    
 UBDSV1 SAVING           STO-SS ON UNIT   1016 AT TIME STEP      5, STRESS PERIOD      8
 UBDSV1 SAVING           STO-SY ON UNIT   1016 AT TIME STEP      5, STRESS PERIOD      8
 UBDSV1 SAVING     FLOW-JA-FACE ON UNIT   1016 AT TIME STEP      5, STRESS PERIOD      8
 UBDSV06 SAVING              RCH IN MODEL TEST_TRANS       PACKAGE TEST_TRANS      CONNECTED TO MODEL TEST_TRANS       PACKAGE RCHA             ON UNIT   1016 AT TIME STEP      5, STRESS PERIOD      8
 UBDSV06 SAVING              CHD IN MODEL TEST_TRANS       PACKAGE TEST_TRANS      CONNECTED TO MODEL TEST_TRANS       PACKAGE CHD              ON UNIT   1016 AT TIME STEP      5, STRESS PERIOD      8

 HEAD WILL BE SAVED ON UNIT 1017 AT END OF TIME STEP    5, STRESS PERIOD    8


  VOLUME BUDGET FOR ENTIRE MODEL AT END OF TIME STEP    5, STRESS PERIOD   8
  ---------------------------------------------------------------------------------------------------

     CUMULATIVE VOLUME      L**3       RATES FOR THIS TIME STEP      L**3/T          PACKAGE NAME    
     ------------------                 ------------------------                     ----------------

           IN:                                      IN:
           ---                                      ---
              STO-SS =          14.2991                STO-SS =       9.3408E-02     STORAGE         
              STO-SY =        8895.8895                STO-SY =          61.2020     STORAGE         
                 RCH =       27768.5008                   RCH =          95.3424     RCHA            
                 CHD =          58.2744                   CHD =           0.0000     CHD             

            TOTAL IN =       36736.9637              TOTAL IN =         156.6379

          OUT:                                     OUT:
          ----                                     ----
              STO-SS =           5.9343                STO-SS =           0.0000     STORAGE         
              STO-SY =        3967.1866                STO-SY =           0.0000     STORAGE         
                 RCH =           0.0000                   RCH =           0.0000     RCHA            
                 CHD =       32763.8853                   CHD =         156.6342     CHD             

           TOTAL OUT =       36737.0062             TOTAL OUT =         156.6342

            IN - OUT =      -4.2443E-02              IN - OUT =       3.6684E-03

 PERCENT DISCREPANCY =          -0.00     PERCENT DISCREPANCY =           0.00




         TIME SUMMARY AT END OF TIME STEP    5 IN STRESS PERIOD    8
                    SECONDS     MINUTES      HOURS       DAYS        YEARS
                    -----------------------------------------------------------
   TIME STEP LENGTH 2.59200E+05  4320.0      72.000      3.0000     8.21355E-03
 STRESS PERIOD TIME 1.29600E+06  21600.      360.00      15.000     4.10678E-02
         TOTAL TIME 1.69344E+07 2.82240E+05  4704.0      196.00     0.53662    
 UBDSV1 SAVING           STO-SS ON UNIT   1016 AT TIME STEP      6, STRESS PERIOD      8
 UBDSV1 SAVING           STO-SY ON UNIT   1016 AT TIME STEP      6, STRESS PERIOD      8
 UBDSV1 SAVING     FLOW-JA-FACE ON UNIT   1016 AT TIME STEP      6, STRESS PERIOD      8
 UBDSV06 SAVING              RCH IN MODEL TEST_TRANS       PACKAGE TEST_TRANS      CONNECTED TO MODEL TEST_TRANS       PACKAGE RCHA             ON UNIT   1016 AT TIME STEP      6, STRESS PERIOD      8
 UBDSV06 SAVING              CHD IN MODEL TEST_TRANS       PACKAGE TEST_TRANS      CONNECTED TO MODEL TEST_TRANS       PACKAGE CHD              ON UNIT   1016 AT TIME STEP      6, STRESS PERIOD      8

 HEAD WILL BE SAVED ON UNIT 1017 AT END OF TIME STEP    6, STRESS PERIOD    8


  VOLUME BUDGET FOR ENTIRE MODEL AT END OF TIME STEP    6, STRESS PERIOD   8
  ---------------------------------------------------------------------------------------------------

     CUMULATIVE VOLUME      L**3       RATES FOR THIS TIME STEP      L**3/T          PACKAGE NAME    
     ------------------                 ------------------------                     ----------------

           IN:                                      IN:
           ---                                      ---
              STO-SS =          14.5551                STO-SS =       8.5331E-02     STORAGE         
              STO-SY =        9062.8690                STO-SY =          55.6598     STORAGE         
                 RCH =       28054.5281                   RCH =          95.3424     RCHA            
                 CHD =          58.2744                   CHD =           0.0000     CHD             

            TOTAL IN =       37190.2265              TOTAL IN =         151.0876

          OUT:                                     OUT:
          ----                                     ----
              STO-SS =           5.9343                STO-SS =           0.0000     STORAGE         
              STO-SY =        3967.1866                STO-SY =           0.0000     STORAGE         
                 RCH =           0.0000                   RCH =           0.0000     RCHA            
                 CHD =       33217.1386                   CHD =         151.0845     CHD             

           TOTAL OUT =       37190.2595             TOTAL OUT =         151.0845

            IN - OUT =      -3.3024E-02              IN - OUT =       3.1396E-03

 PERCENT DISCREPANCY =          -0.00     PERCENT DISCREPANCY =           0.00




         TIME SUMMARY AT END OF TIME STEP    6 IN STRESS PERIOD    8
                    SECONDS     MINUTES      HOURS       DAYS        YEARS
                    -----------------------------------------------------------
   TIME STEP LENGTH 2.59200E+05  4320.0      72.000      3.0000     8.21355E-03
 STRESS PERIOD TIME 1.55520E+06  25920.      432.00      18.000     4.92813E-02
         TOTAL TIME 1.71936E+07 2.86560E+05  4776.0      199.00     0.54483    
 UBDSV1 SAVING           STO-SS ON UNIT   1016 AT TIME STEP      7, STRESS PERIOD      8
 UBDSV1 SAVING           STO-SY ON UNIT   1016 AT TIME STEP      7, STRESS PERIOD      8
 UBDSV1 SAVING     FLOW-JA-FACE ON UNIT   1016 AT TIME STEP      7, STRESS PERIOD      8
 UBDSV06 SAVING              RCH IN MODEL TEST_TRANS       PACKAGE TEST_TRANS      CONNECTED TO MODEL TEST_TRANS       PACKAGE RCHA             ON UNIT   1016 AT TIME STEP      7, STRESS PERIOD      8
 UBDSV06 SAVING              CHD IN MODEL TEST_TRANS       PACKAGE TEST_TRANS      CONNECTED TO MODEL TEST_TRANS       PACKAGE CHD              ON UNIT   1016 AT TIME STEP      7, STRESS PERIOD      8

 HEAD WILL BE SAVED ON UNIT 1017 AT END OF TIME STEP    7, STRESS PERIOD    8


  VOLUME BUDGET FOR ENTIRE MODEL AT END OF TIME STEP    7, STRESS PERIOD   8
  ---------------------------------------------------------------------------------------------------

     CUMULATIVE VOLUME      L**3       RATES FOR THIS TIME STEP      L**3/T          PACKAGE NAME    
     ------------------                 ------------------------                     ----------------

           IN:                                      IN:
           ---                                      ---
              STO-SS =          14.7931                STO-SS =       7.9336E-02     STORAGE         
              STO-SY =        9217.5647                STO-SY =          51.5653     STORAGE         
                 RCH =       28340.5554                   RCH =          95.3424     RCHA            
                 CHD =          58.2744                   CHD =           0.0000     CHD             

            TOTAL IN =       37631.1876              TOTAL IN =         146.9870

          OUT:                                     OUT:
          ----                                     ----
              STO-SS =           5.9343                STO-SS =           0.0000     STORAGE         
              STO-SY =        3967.1866                STO-SY =           0.0000     STORAGE         
                 RCH =           0.0000                   RCH =           0.0000     RCHA            
                 CHD =       33658.0787                   CHD =         146.9800     CHD             

           TOTAL OUT =       37631.1996             TOTAL OUT =         146.9800

            IN - OUT =      -1.2017E-02              IN - OUT =       7.0025E-03

 PERCENT DISCREPANCY =          -0.00     PERCENT DISCREPANCY =           0.00




         TIME SUMMARY AT END OF TIME STEP    7 IN STRESS PERIOD    8
                    SECONDS     MINUTES      HOURS       DAYS        YEARS
                    -----------------------------------------------------------
   TIME STEP LENGTH 2.59200E+05  4320.0      72.000      3.0000     8.21355E-03
 STRESS PERIOD TIME 1.81440E+06  30240.      504.00      21.000     5.74949E-02
         TOTAL TIME 1.74528E+07 2.90880E+05  4848.0      202.00     0.55305    
 UBDSV1 SAVING           STO-SS ON UNIT   1016 AT TIME STEP      8, STRESS PERIOD      8
 UBDSV1 SAVING           STO-SY ON UNIT   1016 AT TIME STEP      8, STRESS PERIOD      8
 UBDSV1 SAVING     FLOW-JA-FACE ON UNIT   1016 AT TIME STEP      8, STRESS PERIOD      8
 UBDSV06 SAVING              RCH IN MODEL TEST_TRANS       PACKAGE TEST_TRANS      CONNECTED TO MODEL TEST_TRANS       PACKAGE RCHA             ON UNIT   1016 AT TIME STEP      8, STRESS PERIOD      8
 UBDSV06 SAVING              CHD IN MODEL TEST_TRANS       PACKAGE TEST_TRANS      CONNECTED TO MODEL TEST_TRANS       PACKAGE CHD              ON UNIT   1016 AT TIME STEP      8, STRESS PERIOD      8

 HEAD WILL BE SAVED ON UNIT 1017 AT END OF TIME STEP    8, STRESS PERIOD    8


  VOLUME BUDGET FOR ENTIRE MODEL AT END OF TIME STEP    8, STRESS PERIOD   8
  ---------------------------------------------------------------------------------------------------

     CUMULATIVE VOLUME      L**3       RATES FOR THIS TIME STEP      L**3/T          PACKAGE NAME    
     ------------------                 ------------------------                     ----------------

           IN:                                      IN:
           ---                                      ---
              STO-SS =          15.0170                STO-SS =       7.4645E-02     STORAGE         
              STO-SY =        9362.6956                STO-SY =          48.3770     STORAGE         
                 RCH =       28626.5827                   RCH =          95.3424     RCHA            
                 CHD =          58.2744                   CHD =           0.0000     CHD             

            TOTAL IN =       38062.5697              TOTAL IN =         143.7940

          OUT:                                     OUT:
          ----                                     ----
              STO-SS =           5.9343                STO-SS =           0.0000     STORAGE         
              STO-SY =        3967.1866                STO-SY =           0.0000     STORAGE         
                 RCH =           0.0000                   RCH =           0.0000     RCHA            
                 CHD =       34089.4433                   CHD =         143.7882     CHD             

           TOTAL OUT =       38062.5642             TOTAL OUT =         143.7882

            IN - OUT =       5.5019E-03              IN - OUT =       5.8396E-03

 PERCENT DISCREPANCY =           0.00     PERCENT DISCREPANCY =           0.00




         TIME SUMMARY AT END OF TIME STEP    8 IN STRESS PERIOD    8
                    SECONDS     MINUTES      HOURS       DAYS        YEARS
                    -----------------------------------------------------------
   TIME STEP LENGTH 2.59200E+05  4320.0      72.000      3.0000     8.21355E-03
 STRESS PERIOD TIME 2.07360E+06  34560.      576.00      24.000     6.57084E-02
         TOTAL TIME 1.77120E+07 2.95200E+05  4920.0      205.00     0.56126    
 UBDSV1 SAVING           STO-SS ON UNIT   1016 AT TIME STEP      9, STRESS PERIOD      8
 UBDSV1 SAVING           STO-SY ON UNIT   1016 AT TIME STEP      9, STRESS PERIOD      8
 UBDSV1 SAVING     FLOW-JA-FACE ON UNIT   1016 AT TIME STEP      9, STRESS PERIOD      8
 UBDSV06 SAVING              RCH IN MODEL TEST_TRANS       PACKAGE TEST_TRANS      CONNECTED TO MODEL TEST_TRANS       PACKAGE RCHA             ON UNIT   1016 AT TIME STEP      9, STRESS PERIOD      8
 UBDSV06 SAVING              CHD IN MODEL TEST_TRANS       PACKAGE TEST_TRANS      CONNECTED TO MODEL TEST_TRANS       PACKAGE CHD              ON UNIT   1016 AT TIME STEP      9, STRESS PERIOD      8

 HEAD WILL BE SAVED ON UNIT 1017 AT END OF TIME STEP    9, STRESS PERIOD    8


  VOLUME BUDGET FOR ENTIRE MODEL AT END OF TIME STEP    9, STRESS PERIOD   8
  ---------------------------------------------------------------------------------------------------

     CUMULATIVE VOLUME      L**3       RATES FOR THIS TIME STEP      L**3/T          PACKAGE NAME    
     ------------------                 ------------------------                     ----------------

           IN:                                      IN:
           ---                                      ---
              STO-SS =          15.2295                STO-SS =       7.0838E-02     STORAGE         
              STO-SY =        9500.1032                STO-SY =          45.8025     STORAGE         
                 RCH =       28912.6100                   RCH =          95.3424     RCHA            
                 CHD =          58.2744                   CHD =           0.0000     CHD             

            TOTAL IN =       38486.2171              TOTAL IN =         141.2158

          OUT:                                     OUT:
          ----                                     ----
              STO-SS =           5.9343                STO-SS =           0.0000     STORAGE         
              STO-SY =        3967.1866                STO-SY =           0.0000     STORAGE         
                 RCH =           0.0000                   RCH =           0.0000     RCHA            
                 CHD =       34513.0757                   CHD =         141.2108     CHD             

           TOTAL OUT =       38486.1966             TOTAL OUT =         141.2108

            IN - OUT =       2.0466E-02              IN - OUT =       4.9882E-03

 PERCENT DISCREPANCY =           0.00     PERCENT DISCREPANCY =           0.00




         TIME SUMMARY AT END OF TIME STEP    9 IN STRESS PERIOD    8
                    SECONDS     MINUTES      HOURS       DAYS        YEARS
                    -----------------------------------------------------------
   TIME STEP LENGTH 2.59200E+05  4320.0      72.000      3.0000     8.21355E-03
 STRESS PERIOD TIME 2.33280E+06  38880.      648.00      27.000     7.39220E-02
         TOTAL TIME 1.79712E+07 2.99520E+05  4992.0      208.00     0.56947    
 UBDSV1 SAVING           STO-SS ON UNIT   1016 AT TIME STEP     10, STRESS PERIOD      8
 UBDSV1 SAVING           STO-SY ON UNIT   1016 AT TIME STEP     10, STRESS PERIOD      8
 UBDSV1 SAVING     FLOW-JA-FACE ON UNIT   1016 AT TIME STEP     10, STRESS PERIOD      8
 UBDSV06 SAVING              RCH IN MODEL TEST_TRANS       PACKAGE TEST_TRANS      CONNECTED TO MODEL TEST_TRANS       PACKAGE RCHA             ON UNIT   1016 AT TIME STEP     10, STRESS PERIOD      8
 UBDSV06 SAVING              CHD IN MODEL TEST_TRANS       PACKAGE TEST_TRANS      CONNECTED TO MODEL TEST_TRANS       PACKAGE CHD              ON UNIT   1016 AT TIME STEP     10, STRESS PERIOD      8

 HEAD WILL BE SAVED ON UNIT 1017 AT END OF TIME STEP   10, STRESS PERIOD    8


  VOLUME BUDGET FOR ENTIRE MODEL AT END OF TIME STEP   10, STRESS PERIOD   8
  ---------------------------------------------------------------------------------------------------

     CUMULATIVE VOLUME      L**3       RATES FOR THIS TIME STEP      L**3/T          PACKAGE NAME    
     ------------------                 ------------------------                     ----------------

           IN:                                      IN:
           ---                                      ---
              STO-SS =          15.4325                STO-SS =       6.7658E-02     STORAGE         
              STO-SY =        9631.0892                STO-SY =          43.6620     STORAGE         
                 RCH =       29198.6373                   RCH =          95.3424     RCHA            
                 CHD =          58.2744                   CHD =           0.0000     CHD             

            TOTAL IN =       38903.4334              TOTAL IN =         139.0721

          OUT:                                     OUT:
          ----                                     ----
              STO-SS =           5.9343                STO-SS =           0.0000     STORAGE         
              STO-SY =        3967.1866                STO-SY =           0.0000     STORAGE         
                 RCH =           0.0000                   RCH =           0.0000     RCHA            
                 CHD =       34930.2790                   CHD =         139.0677     CHD             

           TOTAL OUT =       38903.3999             TOTAL OUT =         139.0677

            IN - OUT =       3.3507E-02              IN - OUT =       4.3470E-03

 PERCENT DISCREPANCY =           0.00     PERCENT DISCREPANCY =           0.00




         TIME SUMMARY AT END OF TIME STEP   10 IN STRESS PERIOD    8
                    SECONDS     MINUTES      HOURS       DAYS        YEARS
                    -----------------------------------------------------------
   TIME STEP LENGTH 2.59200E+05  4320.0      72.000      3.0000     8.21355E-03
 STRESS PERIOD TIME 2.59200E+06  43200.      720.00      30.000     8.21355E-02
         TOTAL TIME 1.82304E+07 3.03840E+05  5064.0      211.00     0.57769    

 OUTPUT CONTROL FOR STRESS PERIOD 9 IS REPEATED USING SETTINGS FROM A PREVIOUS STRESS PERIOD.


 STRESS PERIOD 9 IS TRANSIENT


                 RECHARGE =  0.1643840E-02
 UBDSV1 SAVING           STO-SS ON UNIT   1016 AT TIME STEP      1, STRESS PERIOD      9
 UBDSV1 SAVING           STO-SY ON UNIT   1016 AT TIME STEP      1, STRESS PERIOD      9
 UBDSV1 SAVING     FLOW-JA-FACE ON UNIT   1016 AT TIME STEP      1, STRESS PERIOD      9
 UBDSV06 SAVING              RCH IN MODEL TEST_TRANS       PACKAGE TEST_TRANS      CONNECTED TO MODEL TEST_TRANS       PACKAGE RCHA             ON UNIT   1016 AT TIME STEP      1, STRESS PERIOD      9
 UBDSV06 SAVING              CHD IN MODEL TEST_TRANS       PACKAGE TEST_TRANS      CONNECTED TO MODEL TEST_TRANS       PACKAGE CHD              ON UNIT   1016 AT TIME STEP      1, STRESS PERIOD      9

 HEAD WILL BE SAVED ON UNIT 1017 AT END OF TIME STEP    1, STRESS PERIOD    9


  VOLUME BUDGET FOR ENTIRE MODEL AT END OF TIME STEP    1, STRESS PERIOD   9
  ---------------------------------------------------------------------------------------------------

     CUMULATIVE VOLUME      L**3       RATES FOR THIS TIME STEP      L**3/T          PACKAGE NAME    
     ------------------                 ------------------------                     ----------------

           IN:                                      IN:
           ---                                      ---
              STO-SS =          15.5458                STO-SS =       3.7760E-02     STORAGE         
              STO-SY =        9709.3723                STO-SY =          26.0944     STORAGE         
                 RCH =       29627.6795                   RCH =         143.0141     RCHA            
                 CHD =          58.2744                   CHD =           0.0000     CHD             

            TOTAL IN =       39410.8720              TOTAL IN =         169.1462

          OUT:                                     OUT:
          ----                                     ----
              STO-SS =           5.9618                STO-SS =       9.1970E-03     STORAGE         
              STO-SY =        3984.3614                STO-SY =           5.7249     STORAGE         
                 RCH =           0.0000                   RCH =           0.0000     RCHA            
                 CHD =       35420.5427                   CHD =         163.4213     CHD             

           TOTAL OUT =       39410.8660             TOTAL OUT =         169.1554

            IN - OUT =       5.9636E-03              IN - OUT =      -9.1812E-03

 PERCENT DISCREPANCY =           0.00     PERCENT DISCREPANCY =          -0.01




         TIME SUMMARY AT END OF TIME STEP    1 IN STRESS PERIOD    9
                    SECONDS     MINUTES      HOURS       DAYS        YEARS
                    -----------------------------------------------------------
   TIME STEP LENGTH 2.59200E+05  4320.0      72.000      3.0000     8.21355E-03
 STRESS PERIOD TIME 2.59200E+05  4320.0      72.000      3.0000     8.21355E-03
         TOTAL TIME 1.84896E+07 3.08160E+05  5136.0      214.00     0.58590    
 UBDSV1 SAVING           STO-SS ON UNIT   1016 AT TIME STEP      2, STRESS PERIOD      9
 UBDSV1 SAVING           STO-SY ON UNIT   1016 AT TIME STEP      2, STRESS PERIOD      9
 UBDSV1 SAVING     FLOW-JA-FACE ON UNIT   1016 AT TIME STEP      2, STRESS PERIOD      9
 UBDSV06 SAVING              RCH IN MODEL TEST_TRANS       PACKAGE TEST_TRANS      CONNECTED TO MODEL TEST_TRANS       PACKAGE RCHA             ON UNIT   1016 AT TIME STEP      2, STRESS PERIOD      9
 UBDSV06 SAVING              CHD IN MODEL TEST_TRANS       PACKAGE TEST_TRANS      CONNECTED TO MODEL TEST_TRANS       PACKAGE CHD              ON UNIT   1016 AT TIME STEP      2, STRESS PERIOD      9

 HEAD WILL BE SAVED ON UNIT 1017 AT END OF TIME STEP    2, STRESS PERIOD    9


  VOLUME BUDGET FOR ENTIRE MODEL AT END OF TIME STEP    2, STRESS PERIOD   9
  ---------------------------------------------------------------------------------------------------

     CUMULATIVE VOLUME      L**3       RATES FOR THIS TIME STEP      L**3/T          PACKAGE NAME    
     ------------------                 ------------------------                     ----------------

           IN:                                      IN:
           ---                                      ---
              STO-SS =          15.6195                STO-SS =       2.4570E-02     STORAGE         
              STO-SY =        9759.6576                STO-SY =          16.7618     STORAGE         
                 RCH =       30056.7218                   RCH =         143.0141     RCHA            
                 CHD =          58.2744                   CHD =           0.0000     CHD             

            TOTAL IN =       39890.2732              TOTAL IN =         159.8004

          OUT:                                     OUT:
          ----                                     ----
              STO-SS =           5.9872                STO-SS =       8.4624E-03     STORAGE         
              STO-SY =        4000.1572                STO-SY =           5.2652     STORAGE         
                 RCH =           0.0000                   RCH =           0.0000     RCHA            
                 CHD =       35884.1249                   CHD =         154.5274     CHD             

           TOTAL OUT =       39890.2693             TOTAL OUT =         159.8011

            IN - OUT =       3.9121E-03              IN - OUT =      -6.8386E-04

 PERCENT DISCREPANCY =           0.00     PERCENT DISCREPANCY =          -0.00




         TIME SUMMARY AT END OF TIME STEP    2 IN STRESS PERIOD    9
                    SECONDS     MINUTES      HOURS       DAYS        YEARS
                    -----------------------------------------------------------
   TIME STEP LENGTH 2.59200E+05  4320.0      72.000      3.0000     8.21355E-03
 STRESS PERIOD TIME 5.18400E+05  8640.0      144.00      6.0000     1.64271E-02
         TOTAL TIME 1.87488E+07 3.12480E+05  5208.0      217.00     0.59411    
 UBDSV1 SAVING           STO-SS ON UNIT   1016 AT TIME STEP      3, STRESS PERIOD      9
 UBDSV1 SAVING           STO-SY ON UNIT   1016 AT TIME STEP      3, STRESS PERIOD      9
 UBDSV1 SAVING     FLOW-JA-FACE ON UNIT   1016 AT TIME STEP      3, STRESS PERIOD      9
 UBDSV06 SAVING              RCH IN MODEL TEST_TRANS       PACKAGE TEST_TRANS      CONNECTED TO MODEL TEST_TRANS       PACKAGE RCHA             ON UNIT   1016 AT TIME STEP      3, STRESS PERIOD      9
 UBDSV06 SAVING              CHD IN MODEL TEST_TRANS       PACKAGE TEST_TRANS      CONNECTED TO MODEL TEST_TRANS       PACKAGE CHD              ON UNIT   1016 AT TIME STEP      3, STRESS PERIOD      9

 HEAD WILL BE SAVED ON UNIT 1017 AT END OF TIME STEP    3, STRESS PERIOD    9


  VOLUME BUDGET FOR ENTIRE MODEL AT END OF TIME STEP    3, STRESS PERIOD   9
  ---------------------------------------------------------------------------------------------------

     CUMULATIVE VOLUME      L**3       RATES FOR THIS TIME STEP      L**3/T          PACKAGE NAME    
     ------------------                 ------------------------                     ----------------

           IN:                                      IN:
           ---                                      ---
              STO-SS =          15.6756                STO-SS =       1.8716E-02     STORAGE         
              STO-SY =        9797.6464                STO-SY =          12.6629     STORAGE         
                 RCH =       30485.7640                   RCH =         143.0141     RCHA            
                 CHD =          58.2744                   CHD =           0.0000     CHD             

            TOTAL IN =       40357.3604              TOTAL IN =         155.6957

          OUT:                                     OUT:
          ----                                     ----
              STO-SS =           6.0105                STO-SS =       7.7604E-03     STORAGE         
              STO-SY =        4014.6361                STO-SY =           4.8263     STORAGE         
                 RCH =           0.0000                   RCH =           0.0000     RCHA            
                 CHD =       36336.7023                   CHD =         150.8591     CHD             

           TOTAL OUT =       40357.3489             TOTAL OUT =         155.6932

            IN - OUT =       1.1510E-02              IN - OUT =       2.5327E-03

 PERCENT DISCREPANCY =           0.00     PERCENT DISCREPANCY =           0.00




         TIME SUMMARY AT END OF TIME STEP    3 IN STRESS PERIOD    9
                    SECONDS     MINUTES      HOURS       DAYS        YEARS
                    -----------------------------------------------------------
   TIME STEP LENGTH 2.59200E+05  4320.0      72.000      3.0000     8.21355E-03
 STRESS PERIOD TIME 7.77600E+05  12960.      216.00      9.0000     2.46407E-02
         TOTAL TIME 1.90080E+07 3.16800E+05  5280.0      220.00     0.60233    
 UBDSV1 SAVING           STO-SS ON UNIT   1016 AT TIME STEP      4, STRESS PERIOD      9
 UBDSV1 SAVING           STO-SY ON UNIT   1016 AT TIME STEP      4, STRESS PERIOD      9
 UBDSV1 SAVING     FLOW-JA-FACE ON UNIT   1016 AT TIME STEP      4, STRESS PERIOD      9
 UBDSV06 SAVING              RCH IN MODEL TEST_TRANS       PACKAGE TEST_TRANS      CONNECTED TO MODEL TEST_TRANS       PACKAGE RCHA             ON UNIT   1016 AT TIME STEP      4, STRESS PERIOD      9
 UBDSV06 SAVING              CHD IN MODEL TEST_TRANS       PACKAGE TEST_TRANS      CONNECTED TO MODEL TEST_TRANS       PACKAGE CHD              ON UNIT   1016 AT TIME STEP      4, STRESS PERIOD      9

 HEAD WILL BE SAVED ON UNIT 1017 AT END OF TIME STEP    4, STRESS PERIOD    9


  VOLUME BUDGET FOR ENTIRE MODEL AT END OF TIME STEP    4, STRESS PERIOD   9
  ---------------------------------------------------------------------------------------------------

     CUMULATIVE VOLUME      L**3       RATES FOR THIS TIME STEP      L**3/T          PACKAGE NAME    
     ------------------                 ------------------------                     ----------------

           IN:                                      IN:
           ---                                      ---
              STO-SS =          15.7212                STO-SS =       1.5187E-02     STORAGE         
              STO-SY =        9828.3071                STO-SY =          10.2202     STORAGE         
                 RCH =       30914.8062                   RCH =         143.0141     RCHA            
                 CHD =          58.2744                   CHD =           0.0000     CHD             

            TOTAL IN =       40817.1089              TOTAL IN =         153.2495

          OUT:                                     OUT:
          ----                                     ----
              STO-SS =           6.0318                STO-SS =       7.0969E-03     STORAGE         
              STO-SY =        4027.8717                STO-SY =           4.4119     STORAGE         
                 RCH =           0.0000                   RCH =           0.0000     RCHA            
                 CHD =       36783.1874                   CHD =         148.8284     CHD             

           TOTAL OUT =       40817.0909             TOTAL OUT =         153.2473

            IN - OUT =       1.8001E-02              IN - OUT =       2.1636E-03

 PERCENT DISCREPANCY =           0.00     PERCENT DISCREPANCY =           0.00




         TIME SUMMARY AT END OF TIME STEP    4 IN STRESS PERIOD    9
                    SECONDS     MINUTES      HOURS       DAYS        YEARS
                    -----------------------------------------------------------
   TIME STEP LENGTH 2.59200E+05  4320.0      72.000      3.0000     8.21355E-03
 STRESS PERIOD TIME 1.03680E+06  17280.      288.00      12.000     3.28542E-02
         TOTAL TIME 1.92672E+07 3.21120E+05  5352.0      223.00     0.61054    
 UBDSV1 SAVING           STO-SS ON UNIT   1016 AT TIME STEP      5, STRESS PERIOD      9
 UBDSV1 SAVING           STO-SY ON UNIT   1016 AT TIME STEP      5, STRESS PERIOD      9
 UBDSV1 SAVING     FLOW-JA-FACE ON UNIT   1016 AT TIME STEP      5, STRESS PERIOD      9
 UBDSV06 SAVING              RCH IN MODEL TEST_TRANS       PACKAGE TEST_TRANS      CONNECTED TO MODEL TEST_TRANS       PACKAGE RCHA             ON UNIT   1016 AT TIME STEP      5, STRESS PERIOD      9
 UBDSV06 SAVING              CHD IN MODEL TEST_TRANS       PACKAGE TEST_TRANS      CONNECTED TO MODEL TEST_TRANS       PACKAGE CHD              ON UNIT   1016 AT TIME STEP      5, STRESS PERIOD      9

 HEAD WILL BE SAVED ON UNIT 1017 AT END OF TIME STEP    5, STRESS PERIOD    9


  VOLUME BUDGET FOR ENTIRE MODEL AT END OF TIME STEP    5, STRESS PERIOD   9
  ---------------------------------------------------------------------------------------------------

     CUMULATIVE VOLUME      L**3       RATES FOR THIS TIME STEP      L**3/T          PACKAGE NAME    
     ------------------                 ------------------------                     ----------------

           IN:                                      IN:
           ---                                      ---
              STO-SS =          15.7592                STO-SS =       1.2672E-02     STORAGE         
              STO-SY =        9853.7946                STO-SY =           8.4959     STORAGE         
                 RCH =       31343.8485                   RCH =         143.0141     RCHA            
                 CHD =          58.2744                   CHD =           0.0000     CHD             

            TOTAL IN =       41271.6767              TOTAL IN =         151.5226

          OUT:                                     OUT:
          ----                                     ----
              STO-SS =           6.0512                STO-SS =       6.4600E-03     STORAGE         
              STO-SY =        4039.9145                STO-SY =           4.0143     STORAGE         
                 RCH =           0.0000                   RCH =           0.0000     RCHA            
                 CHD =       37225.6854                   CHD =         147.4993     CHD             

           TOTAL OUT =       41271.6511             TOTAL OUT =         151.5201

            IN - OUT =       2.5604E-02              IN - OUT =       2.5343E-03

 PERCENT DISCREPANCY =           0.00     PERCENT DISCREPANCY =           0.00




         TIME SUMMARY AT END OF TIME STEP    5 IN STRESS PERIOD    9
                    SECONDS     MINUTES      HOURS       DAYS        YEARS
                    -----------------------------------------------------------
   TIME STEP LENGTH 2.59200E+05  4320.0      72.000      3.0000     8.21355E-03
 STRESS PERIOD TIME 1.29600E+06  21600.      360.00      15.000     4.10678E-02
         TOTAL TIME 1.95264E+07 3.25440E+05  5424.0      226.00     0.61875    
 UBDSV1 SAVING           STO-SS ON UNIT   1016 AT TIME STEP      6, STRESS PERIOD      9
 UBDSV1 SAVING           STO-SY ON UNIT   1016 AT TIME STEP      6, STRESS PERIOD      9
 UBDSV1 SAVING     FLOW-JA-FACE ON UNIT   1016 AT TIME STEP      6, STRESS PERIOD      9
 UBDSV06 SAVING              RCH IN MODEL TEST_TRANS       PACKAGE TEST_TRANS      CONNECTED TO MODEL TEST_TRANS       PACKAGE RCHA             ON UNIT   1016 AT TIME STEP      6, STRESS PERIOD      9
 UBDSV06 SAVING              CHD IN MODEL TEST_TRANS       PACKAGE TEST_TRANS      CONNECTED TO MODEL TEST_TRANS       PACKAGE CHD              ON UNIT   1016 AT TIME STEP      6, STRESS PERIOD      9

 HEAD WILL BE SAVED ON UNIT 1017 AT END OF TIME STEP    6, STRESS PERIOD    9


  VOLUME BUDGET FOR ENTIRE MODEL AT END OF TIME STEP    6, STRESS PERIOD   9
  ---------------------------------------------------------------------------------------------------

     CUMULATIVE VOLUME      L**3       RATES FOR THIS TIME STEP      L**3/T          PACKAGE NAME    
     ------------------                 ------------------------                     ----------------

           IN:                                      IN:
           ---                                      ---
              STO-SS =          15.7915                STO-SS =       1.0776E-02     STORAGE         
              STO-SY =        9875.4089                STO-SY =           7.2048     STORAGE         
                 RCH =       31772.8907                   RCH =         143.0141     RCHA            
                 CHD =          58.2744                   CHD =           0.0000     CHD             

            TOTAL IN =       41722.3656              TOTAL IN =         150.2296

          OUT:                                     OUT:
          ----                                     ----
              STO-SS =           6.0688                STO-SS =       5.8783E-03     STORAGE         
              STO-SY =        4050.8692                STO-SY =           3.6516     STORAGE         
                 RCH =           0.0000                   RCH =           0.0000     RCHA            
                 CHD =       37665.3070                   CHD =         146.5405     CHD             

           TOTAL OUT =       41722.2450             TOTAL OUT =         150.1980

            IN - OUT =           0.1205              IN - OUT =       3.1648E-02

 PERCENT DISCREPANCY =           0.00     PERCENT DISCREPANCY =           0.02




         TIME SUMMARY AT END OF TIME STEP    6 IN STRESS PERIOD    9
                    SECONDS     MINUTES      HOURS       DAYS        YEARS
                    -----------------------------------------------------------
   TIME STEP LENGTH 2.59200E+05  4320.0      72.000      3.0000     8.21355E-03
 STRESS PERIOD TIME 1.55520E+06  25920.      432.00      18.000     4.92813E-02
         TOTAL TIME 1.97856E+07 3.29760E+05  5496.0      229.00     0.62697    
 UBDSV1 SAVING           STO-SS ON UNIT   1016 AT TIME STEP      7, STRESS PERIOD      9
 UBDSV1 SAVING           STO-SY ON UNIT   1016 AT TIME STEP      7, STRESS PERIOD      9
 UBDSV1 SAVING     FLOW-JA-FACE ON UNIT   1016 AT TIME STEP      7, STRESS PERIOD      9
 UBDSV06 SAVING              RCH IN MODEL TEST_TRANS       PACKAGE TEST_TRANS      CONNECTED TO MODEL TEST_TRANS       PACKAGE RCHA             ON UNIT   1016 AT TIME STEP      7, STRESS PERIOD      9
 UBDSV06 SAVING              CHD IN MODEL TEST_TRANS       PACKAGE TEST_TRANS      CONNECTED TO MODEL TEST_TRANS       PACKAGE CHD              ON UNIT   1016 AT TIME STEP      7, STRESS PERIOD      9

 HEAD WILL BE SAVED ON UNIT 1017 AT END OF TIME STEP    7, STRESS PERIOD    9


  VOLUME BUDGET FOR ENTIRE MODEL AT END OF TIME STEP    7, STRESS PERIOD   9
  ---------------------------------------------------------------------------------------------------

     CUMULATIVE VOLUME      L**3       RATES FOR THIS TIME STEP      L**3/T          PACKAGE NAME    
     ------------------                 ------------------------                     ----------------

           IN:                                      IN:
           ---                                      ---
              STO-SS =          15.8192                STO-SS =       9.2041E-03     STORAGE         
              STO-SY =        9893.8335                STO-SY =           6.1415     STORAGE         
                 RCH =       32201.9330                   RCH =         143.0141     RCHA            
                 CHD =          58.2744                   CHD =           0.0000     CHD             

            TOTAL IN =       42169.8600              TOTAL IN =         149.1648

          OUT:                                     OUT:
          ----                                     ----
              STO-SS =           6.0849                STO-SS =       5.3490E-03     STORAGE         
              STO-SY =        4060.8349                STO-SY =           3.3219     STORAGE         
                 RCH =           0.0000                   RCH =           0.0000     RCHA            
                 CHD =       38102.7452                   CHD =         145.8128     CHD             

           TOTAL OUT =       42169.6650             TOTAL OUT =         149.1400

            IN - OUT =           0.1950              IN - OUT =       2.4812E-02

 PERCENT DISCREPANCY =           0.00     PERCENT DISCREPANCY =           0.02




         TIME SUMMARY AT END OF TIME STEP    7 IN STRESS PERIOD    9
                    SECONDS     MINUTES      HOURS       DAYS        YEARS
                    -----------------------------------------------------------
   TIME STEP LENGTH 2.59200E+05  4320.0      72.000      3.0000     8.21355E-03
 STRESS PERIOD TIME 1.81440E+06  30240.      504.00      21.000     5.74949E-02
         TOTAL TIME 2.00448E+07 3.34080E+05  5568.0      232.00     0.63518    
 UBDSV1 SAVING           STO-SS ON UNIT   1016 AT TIME STEP      8, STRESS PERIOD      9
 UBDSV1 SAVING           STO-SY ON UNIT   1016 AT TIME STEP      8, STRESS PERIOD      9
 UBDSV1 SAVING     FLOW-JA-FACE ON UNIT   1016 AT TIME STEP      8, STRESS PERIOD      9
 UBDSV06 SAVING              RCH IN MODEL TEST_TRANS       PACKAGE TEST_TRANS      CONNECTED TO MODEL TEST_TRANS       PACKAGE RCHA             ON UNIT   1016 AT TIME STEP      8, STRESS PERIOD      9
 UBDSV06 SAVING              CHD IN MODEL TEST_TRANS       PACKAGE TEST_TRANS      CONNECTED TO MODEL TEST_TRANS       PACKAGE CHD              ON UNIT   1016 AT TIME STEP      8, STRESS PERIOD      9

 HEAD WILL BE SAVED ON UNIT 1017 AT END OF TIME STEP    8, STRESS PERIOD    9


  VOLUME BUDGET FOR ENTIRE MODEL AT END OF TIME STEP    8, STRESS PERIOD   9
  ---------------------------------------------------------------------------------------------------

     CUMULATIVE VOLUME      L**3       RATES FOR THIS TIME STEP      L**3/T          PACKAGE NAME    
     ------------------                 ------------------------                     ----------------

           IN:                                      IN:
           ---                                      ---
              STO-SS =          15.8429                STO-SS =       7.8982E-03     STORAGE         
              STO-SY =        9909.6200                STO-SY =           5.2622     STORAGE         
                 RCH =       32630.9752                   RCH =         143.0141     RCHA            
                 CHD =          58.2744                   CHD =           0.0000     CHD             

            TOTAL IN =       42614.7125              TOTAL IN =         148.2842

          OUT:                                     OUT:
          ----                                     ----
              STO-SS =           6.0995                STO-SS =       4.8629E-03     STORAGE         
              STO-SY =        4069.8927                STO-SY =           3.0193     STORAGE         
                 RCH =           0.0000                   RCH =           0.0000     RCHA            
                 CHD =       38538.4654                   CHD =         145.2401     CHD             

           TOTAL OUT =       42614.4575             TOTAL OUT =         148.2642

            IN - OUT =           0.2549              IN - OUT =       1.9988E-02

 PERCENT DISCREPANCY =           0.00     PERCENT DISCREPANCY =           0.01




         TIME SUMMARY AT END OF TIME STEP    8 IN STRESS PERIOD    9
                    SECONDS     MINUTES      HOURS       DAYS        YEARS
                    -----------------------------------------------------------
   TIME STEP LENGTH 2.59200E+05  4320.0      72.000      3.0000     8.21355E-03
 STRESS PERIOD TIME 2.07360E+06  34560.      576.00      24.000     6.57084E-02
         TOTAL TIME 2.03040E+07 3.38400E+05  5640.0      235.00     0.64339    
 UBDSV1 SAVING           STO-SS ON UNIT   1016 AT TIME STEP      9, STRESS PERIOD      9
 UBDSV1 SAVING           STO-SY ON UNIT   1016 AT TIME STEP      9, STRESS PERIOD      9
 UBDSV1 SAVING     FLOW-JA-FACE ON UNIT   1016 AT TIME STEP      9, STRESS PERIOD      9
 UBDSV06 SAVING              RCH IN MODEL TEST_TRANS       PACKAGE TEST_TRANS      CONNECTED TO MODEL TEST_TRANS       PACKAGE RCHA             ON UNIT   1016 AT TIME STEP      9, STRESS PERIOD      9
 UBDSV06 SAVING              CHD IN MODEL TEST_TRANS       PACKAGE TEST_TRANS      CONNECTED TO MODEL TEST_TRANS       PACKAGE CHD              ON UNIT   1016 AT TIME STEP      9, STRESS PERIOD      9

 HEAD WILL BE SAVED ON UNIT 1017 AT END OF TIME STEP    9, STRESS PERIOD    9


  VOLUME BUDGET FOR ENTIRE MODEL AT END OF TIME STEP    9, STRESS PERIOD   9
  ---------------------------------------------------------------------------------------------------

     CUMULATIVE VOLUME      L**3       RATES FOR THIS TIME STEP      L**3/T          PACKAGE NAME    
     ------------------                 ------------------------                     ----------------

           IN:                                      IN:
           ---                                      ---
              STO-SS =          15.8632                STO-SS =       6.7953E-03     STORAGE         
              STO-SY =        9923.1868                STO-SY =           4.5223     STORAGE         
                 RCH =       33060.0174                   RCH =         143.0141     RCHA            
                 CHD =          58.2744                   CHD =           0.0000     CHD             

            TOTAL IN =       43057.3419              TOTAL IN =         147.5431

          OUT:                                     OUT:
          ----                                     ----
              STO-SS =           6.1127                STO-SS =       4.4211E-03     STORAGE         
              STO-SY =        4078.1259                STO-SY =           2.7444     STORAGE         
                 RCH =           0.0000                   RCH =           0.0000     RCHA            
                 CHD =       38972.7991                   CHD =         144.7779     CHD             

           TOTAL OUT =       43057.0377             TOTAL OUT =         147.5267

            IN - OUT =           0.3042              IN - OUT =       1.6409E-02

 PERCENT DISCREPANCY =           0.00     PERCENT DISCREPANCY =           0.01




         TIME SUMMARY AT END OF TIME STEP    9 IN STRESS PERIOD    9
                    SECONDS     MINUTES      HOURS       DAYS        YEARS
                    -----------------------------------------------------------
   TIME STEP LENGTH 2.59200E+05  4320.0      72.000      3.0000     8.21355E-03
 STRESS PERIOD TIME 2.33280E+06  38880.      648.00      27.000     7.39220E-02
         TOTAL TIME 2.05632E+07 3.42720E+05  5712.0      238.00     0.65161    
 UBDSV1 SAVING           STO-SS ON UNIT   1016 AT TIME STEP     10, STRESS PERIOD      9
 UBDSV1 SAVING           STO-SY ON UNIT   1016 AT TIME STEP     10, STRESS PERIOD      9
 UBDSV1 SAVING     FLOW-JA-FACE ON UNIT   1016 AT TIME STEP     10, STRESS PERIOD      9
 UBDSV06 SAVING              RCH IN MODEL TEST_TRANS       PACKAGE TEST_TRANS      CONNECTED TO MODEL TEST_TRANS       PACKAGE RCHA             ON UNIT   1016 AT TIME STEP     10, STRESS PERIOD      9
 UBDSV06 SAVING              CHD IN MODEL TEST_TRANS       PACKAGE TEST_TRANS      CONNECTED TO MODEL TEST_TRANS       PACKAGE CHD              ON UNIT   1016 AT TIME STEP     10, STRESS PERIOD      9

 HEAD WILL BE SAVED ON UNIT 1017 AT END OF TIME STEP   10, STRESS PERIOD    9


  VOLUME BUDGET FOR ENTIRE MODEL AT END OF TIME STEP   10, STRESS PERIOD   9
  ---------------------------------------------------------------------------------------------------

     CUMULATIVE VOLUME      L**3       RATES FOR THIS TIME STEP      L**3/T          PACKAGE NAME    
     ------------------                 ------------------------                     ----------------

           IN:                                      IN:
           ---                                      ---
              STO-SS =          15.8808                STO-SS =       5.8544E-03     STORAGE         
              STO-SY =        9934.8653                STO-SY =           3.8928     STORAGE         
                 RCH =       33489.0597                   RCH =         143.0141     RCHA            
                 CHD =          58.2744                   CHD =           0.0000     CHD             

            TOTAL IN =       43498.0801              TOTAL IN =         146.9128

          OUT:                                     OUT:
          ----                                     ----
              STO-SS =           6.1248                STO-SS =       4.0227E-03     STORAGE         
              STO-SY =        4085.6160                STO-SY =           2.4967     STORAGE         
                 RCH =           0.0000                   RCH =           0.0000     RCHA            
                 CHD =       39405.9942                   CHD =         144.3984     CHD             

           TOTAL OUT =       43497.7350             TOTAL OUT =         146.8991

            IN - OUT =           0.3451              IN - OUT =       1.3655E-02

 PERCENT DISCREPANCY =           0.00     PERCENT DISCREPANCY =           0.01




         TIME SUMMARY AT END OF TIME STEP   10 IN STRESS PERIOD    9
                    SECONDS     MINUTES      HOURS       DAYS        YEARS
                    -----------------------------------------------------------
   TIME STEP LENGTH 2.59200E+05  4320.0      72.000      3.0000     8.21355E-03
 STRESS PERIOD TIME 2.59200E+06  43200.      720.00      30.000     8.21355E-02
         TOTAL TIME 2.08224E+07 3.47040E+05  5784.0      241.00     0.65982    

 OUTPUT CONTROL FOR STRESS PERIOD 10 IS REPEATED USING SETTINGS FROM A PREVIOUS STRESS PERIOD.


 STRESS PERIOD 10 IS TRANSIENT


                 RECHARGE =  0.2191780E-02
 UBDSV1 SAVING           STO-SS ON UNIT   1016 AT TIME STEP      1, STRESS PERIOD     10
 UBDSV1 SAVING           STO-SY ON UNIT   1016 AT TIME STEP      1, STRESS PERIOD     10
 UBDSV1 SAVING     FLOW-JA-FACE ON UNIT   1016 AT TIME STEP      1, STRESS PERIOD     10
 UBDSV06 SAVING              RCH IN MODEL TEST_TRANS       PACKAGE TEST_TRANS      CONNECTED TO MODEL TEST_TRANS       PACKAGE RCHA             ON UNIT   1016 AT TIME STEP      1, STRESS PERIOD     10
 UBDSV06 SAVING              CHD IN MODEL TEST_TRANS       PACKAGE TEST_TRANS      CONNECTED TO MODEL TEST_TRANS       PACKAGE CHD              ON UNIT   1016 AT TIME STEP      1, STRESS PERIOD     10

 HEAD WILL BE SAVED ON UNIT 1017 AT END OF TIME STEP    1, STRESS PERIOD   10


  VOLUME BUDGET FOR ENTIRE MODEL AT END OF TIME STEP    1, STRESS PERIOD  10
  ---------------------------------------------------------------------------------------------------

     CUMULATIVE VOLUME      L**3       RATES FOR THIS TIME STEP      L**3/T          PACKAGE NAME    
     ------------------                 ------------------------                     ----------------

           IN:                                      IN:
           ---                                      ---
              STO-SS =          15.9939                STO-SS =       3.7688E-02     STORAGE         
              STO-SY =       10014.4997                STO-SY =          26.5448     STORAGE         
                 RCH =       34061.1143                   RCH =         190.6849     RCHA            
                 CHD =          58.2744                   CHD =           0.0000     CHD             

            TOTAL IN =       44149.8822              TOTAL IN =         217.2674

          OUT:                                     OUT:
          ----                                     ----
              STO-SS =           6.2983                STO-SS =       5.7844E-02     STORAGE         
              STO-SY =        4194.9616                STO-SY =          36.4485     STORAGE         
                 RCH =           0.0000                   RCH =           0.0000     RCHA            
                 CHD =       39948.3356                   CHD =         180.7805     CHD             

           TOTAL OUT =       44149.5955             TOTAL OUT =         217.2868

            IN - OUT =           0.2867              IN - OUT =      -1.9485E-02

 PERCENT DISCREPANCY =           0.00     PERCENT DISCREPANCY =          -0.01




         TIME SUMMARY AT END OF TIME STEP    1 IN STRESS PERIOD   10
                    SECONDS     MINUTES      HOURS       DAYS        YEARS
                    -----------------------------------------------------------
   TIME STEP LENGTH 2.59200E+05  4320.0      72.000      3.0000     8.21355E-03
 STRESS PERIOD TIME 2.59200E+05  4320.0      72.000      3.0000     8.21355E-03
         TOTAL TIME 2.10816E+07 3.51360E+05  5856.0      244.00     0.66804    
 UBDSV1 SAVING           STO-SS ON UNIT   1016 AT TIME STEP      2, STRESS PERIOD     10
 UBDSV1 SAVING           STO-SY ON UNIT   1016 AT TIME STEP      2, STRESS PERIOD     10
 UBDSV1 SAVING     FLOW-JA-FACE ON UNIT   1016 AT TIME STEP      2, STRESS PERIOD     10
 UBDSV06 SAVING              RCH IN MODEL TEST_TRANS       PACKAGE TEST_TRANS      CONNECTED TO MODEL TEST_TRANS       PACKAGE RCHA             ON UNIT   1016 AT TIME STEP      2, STRESS PERIOD     10
 UBDSV06 SAVING              CHD IN MODEL TEST_TRANS       PACKAGE TEST_TRANS      CONNECTED TO MODEL TEST_TRANS       PACKAGE CHD              ON UNIT   1016 AT TIME STEP      2, STRESS PERIOD     10

 HEAD WILL BE SAVED ON UNIT 1017 AT END OF TIME STEP    2, STRESS PERIOD   10


  VOLUME BUDGET FOR ENTIRE MODEL AT END OF TIME STEP    2, STRESS PERIOD  10
  ---------------------------------------------------------------------------------------------------

     CUMULATIVE VOLUME      L**3       RATES FOR THIS TIME STEP      L**3/T          PACKAGE NAME    
     ------------------                 ------------------------                     ----------------

           IN:                                      IN:
           ---                                      ---
              STO-SS =          16.0481                STO-SS =       1.8067E-02     STORAGE         
              STO-SY =       10052.3773                STO-SY =          12.6259     STORAGE         
                 RCH =       34633.1688                   RCH =         190.6849     RCHA            
                 CHD =          58.2744                   CHD =           0.0000     CHD             

            TOTAL IN =       44759.8685              TOTAL IN =         203.3288

          OUT:                                     OUT:
          ----                                     ----
              STO-SS =           6.4608                STO-SS =       5.4163E-02     STORAGE         
              STO-SY =        4297.0620                STO-SY =          34.0335     STORAGE         
                 RCH =           0.0000                   RCH =           0.0000     RCHA            
                 CHD =       40456.0695                   CHD =         169.2446     CHD             

           TOTAL OUT =       44759.5924             TOTAL OUT =         203.3323

            IN - OUT =           0.2761              IN - OUT =      -3.5173E-03

 PERCENT DISCREPANCY =           0.00     PERCENT DISCREPANCY =          -0.00




         TIME SUMMARY AT END OF TIME STEP    2 IN STRESS PERIOD   10
                    SECONDS     MINUTES      HOURS       DAYS        YEARS
                    -----------------------------------------------------------
   TIME STEP LENGTH 2.59200E+05  4320.0      72.000      3.0000     8.21355E-03
 STRESS PERIOD TIME 5.18400E+05  8640.0      144.00      6.0000     1.64271E-02
         TOTAL TIME 2.13408E+07 3.55680E+05  5928.0      247.00     0.67625    
 UBDSV1 SAVING           STO-SS ON UNIT   1016 AT TIME STEP      3, STRESS PERIOD     10
 UBDSV1 SAVING           STO-SY ON UNIT   1016 AT TIME STEP      3, STRESS PERIOD     10
 UBDSV1 SAVING     FLOW-JA-FACE ON UNIT   1016 AT TIME STEP      3, STRESS PERIOD     10
 UBDSV06 SAVING              RCH IN MODEL TEST_TRANS       PACKAGE TEST_TRANS      CONNECTED TO MODEL TEST_TRANS       PACKAGE RCHA             ON UNIT   1016 AT TIME STEP      3, STRESS PERIOD     10
 UBDSV06 SAVING              CHD IN MODEL TEST_TRANS       PACKAGE TEST_TRANS      CONNECTED TO MODEL TEST_TRANS       PACKAGE CHD              ON UNIT   1016 AT TIME STEP      3, STRESS PERIOD     10

 HEAD WILL BE SAVED ON UNIT 1017 AT END OF TIME STEP    3, STRESS PERIOD   10


  VOLUME BUDGET FOR ENTIRE MODEL AT END OF TIME STEP    3, STRESS PERIOD  10
  ---------------------------------------------------------------------------------------------------

     CUMULATIVE VOLUME      L**3       RATES FOR THIS TIME STEP      L**3/T          PACKAGE NAME    
     ------------------                 ------------------------                     ----------------

           IN:                                      IN:
           ---                                      ---
              STO-SS =          16.0775                STO-SS =       9.8000E-03     STORAGE         
              STO-SY =       10072.8199                STO-SY =           6.8142     STORAGE         
                 RCH =       35205.2234                   RCH =         190.6849     RCHA            
                 CHD =          58.2744                   CHD =           0.0000     CHD             

            TOTAL IN =       45352.3951              TOTAL IN =         197.5089

          OUT:                                     OUT:
          ----                                     ----
              STO-SS =           6.6155                STO-SS =       5.1567E-02     STORAGE         
              STO-SY =        4394.1041                STO-SY =          32.3474     STORAGE         
                 RCH =           0.0000                   RCH =           0.0000     RCHA            
                 CHD =       40951.3993                   CHD =         165.1099     CHD             

           TOTAL OUT =       45352.1190             TOTAL OUT =         197.5089

            IN - OUT =           0.2761              IN - OUT =       6.0108E-07

 PERCENT DISCREPANCY =           0.00     PERCENT DISCREPANCY =           0.00




         TIME SUMMARY AT END OF TIME STEP    3 IN STRESS PERIOD   10
                    SECONDS     MINUTES      HOURS       DAYS        YEARS
                    -----------------------------------------------------------
   TIME STEP LENGTH 2.59200E+05  4320.0      72.000      3.0000     8.21355E-03
 STRESS PERIOD TIME 7.77600E+05  12960.      216.00      9.0000     2.46407E-02
         TOTAL TIME 2.16000E+07 3.60000E+05  6000.0      250.00     0.68446    
 UBDSV1 SAVING           STO-SS ON UNIT   1016 AT TIME STEP      4, STRESS PERIOD     10
 UBDSV1 SAVING           STO-SY ON UNIT   1016 AT TIME STEP      4, STRESS PERIOD     10
 UBDSV1 SAVING     FLOW-JA-FACE ON UNIT   1016 AT TIME STEP      4, STRESS PERIOD     10
 UBDSV06 SAVING              RCH IN MODEL TEST_TRANS       PACKAGE TEST_TRANS      CONNECTED TO MODEL TEST_TRANS       PACKAGE RCHA             ON UNIT   1016 AT TIME STEP      4, STRESS PERIOD     10
 UBDSV06 SAVING              CHD IN MODEL TEST_TRANS       PACKAGE TEST_TRANS      CONNECTED TO MODEL TEST_TRANS       PACKAGE CHD              ON UNIT   1016 AT TIME STEP      4, STRESS PERIOD     10

 HEAD WILL BE SAVED ON UNIT 1017 AT END OF TIME STEP    4, STRESS PERIOD   10


  VOLUME BUDGET FOR ENTIRE MODEL AT END OF TIME STEP    4, STRESS PERIOD  10
  ---------------------------------------------------------------------------------------------------

     CUMULATIVE VOLUME      L**3       RATES FOR THIS TIME STEP      L**3/T          PACKAGE NAME    
     ------------------                 ------------------------                     ----------------

           IN:                                      IN:
           ---                                      ---
              STO-SS =          16.0936                STO-SS =       5.3847E-03     STORAGE         
              STO-SY =       10084.0293                STO-SY =           3.7365     STORAGE         
                 RCH =       35777.2780                   RCH =         190.6849     RCHA            
                 CHD =          58.2744                   CHD =           0.0000     CHD             

            TOTAL IN =       45935.6753              TOTAL IN =         194.4267

          OUT:                                     OUT:
          ----                                     ----
              STO-SS =           6.7645                STO-SS =       4.9667E-02     STORAGE         
              STO-SY =        4487.4737                STO-SY =          31.1232     STORAGE         
                 RCH =           0.0000                   RCH =           0.0000     RCHA            
                 CHD =       41441.1617                   CHD =         163.2541     CHD             

           TOTAL OUT =       45935.4000             TOTAL OUT =         194.4270

            IN - OUT =           0.2753              IN - OUT =      -2.7600E-04

 PERCENT DISCREPANCY =           0.00     PERCENT DISCREPANCY =          -0.00




         TIME SUMMARY AT END OF TIME STEP    4 IN STRESS PERIOD   10
                    SECONDS     MINUTES      HOURS       DAYS        YEARS
                    -----------------------------------------------------------
   TIME STEP LENGTH 2.59200E+05  4320.0      72.000      3.0000     8.21355E-03
 STRESS PERIOD TIME 1.03680E+06  17280.      288.00      12.000     3.28542E-02
         TOTAL TIME 2.18592E+07 3.64320E+05  6072.0      253.00     0.69268    
 UBDSV1 SAVING           STO-SS ON UNIT   1016 AT TIME STEP      5, STRESS PERIOD     10
 UBDSV1 SAVING           STO-SY ON UNIT   1016 AT TIME STEP      5, STRESS PERIOD     10
 UBDSV1 SAVING     FLOW-JA-FACE ON UNIT   1016 AT TIME STEP      5, STRESS PERIOD     10
 UBDSV06 SAVING              RCH IN MODEL TEST_TRANS       PACKAGE TEST_TRANS      CONNECTED TO MODEL TEST_TRANS       PACKAGE RCHA             ON UNIT   1016 AT TIME STEP      5, STRESS PERIOD     10
 UBDSV06 SAVING              CHD IN MODEL TEST_TRANS       PACKAGE TEST_TRANS      CONNECTED TO MODEL TEST_TRANS       PACKAGE CHD              ON UNIT   1016 AT TIME STEP      5, STRESS PERIOD     10

 HEAD WILL BE SAVED ON UNIT 1017 AT END OF TIME STEP    5, STRESS PERIOD   10


  VOLUME BUDGET FOR ENTIRE MODEL AT END OF TIME STEP    5, STRESS PERIOD  10
  ---------------------------------------------------------------------------------------------------

     CUMULATIVE VOLUME      L**3       RATES FOR THIS TIME STEP      L**3/T          PACKAGE NAME    
     ------------------                 ------------------------                     ----------------

           IN:                                      IN:
           ---                                      ---
              STO-SS =          16.1019                STO-SS =       2.7612E-03     STORAGE         
              STO-SY =       10089.7807                STO-SY =           1.9171     STORAGE         
                 RCH =       36349.3326                   RCH =         190.6849     RCHA            
                 CHD =          58.2744                   CHD =           0.0000     CHD             

            TOTAL IN =       46513.4895              TOTAL IN =         192.6047

          OUT:                                     OUT:
          ----                                     ----
              STO-SS =           6.9093                STO-SS =       4.8262E-02     STORAGE         
              STO-SY =        4578.1483                STO-SY =          30.2249     STORAGE         
                 RCH =           0.0000                   RCH =           0.0000     RCHA            
                 CHD =       41928.1584                   CHD =         162.3322     CHD             

           TOTAL OUT =       46513.2160             TOTAL OUT =         192.6054

            IN - OUT =           0.2735              IN - OUT =      -6.1021E-04

 PERCENT DISCREPANCY =           0.00     PERCENT DISCREPANCY =          -0.00




         TIME SUMMARY AT END OF TIME STEP    5 IN STRESS PERIOD   10
                    SECONDS     MINUTES      HOURS       DAYS        YEARS
                    -----------------------------------------------------------
   TIME STEP LENGTH 2.59200E+05  4320.0      72.000      3.0000     8.21355E-03
 STRESS PERIOD TIME 1.29600E+06  21600.      360.00      15.000     4.10678E-02
         TOTAL TIME 2.21184E+07 3.68640E+05  6144.0      256.00     0.70089    
 UBDSV1 SAVING           STO-SS ON UNIT   1016 AT TIME STEP      6, STRESS PERIOD     10
 UBDSV1 SAVING           STO-SY ON UNIT   1016 AT TIME STEP      6, STRESS PERIOD     10
 UBDSV1 SAVING     FLOW-JA-FACE ON UNIT   1016 AT TIME STEP      6, STRESS PERIOD     10
 UBDSV06 SAVING              RCH IN MODEL TEST_TRANS       PACKAGE TEST_TRANS      CONNECTED TO MODEL TEST_TRANS       PACKAGE RCHA             ON UNIT   1016 AT TIME STEP      6, STRESS PERIOD     10
 UBDSV06 SAVING              CHD IN MODEL TEST_TRANS       PACKAGE TEST_TRANS      CONNECTED TO MODEL TEST_TRANS       PACKAGE CHD              ON UNIT   1016 AT TIME STEP      6, STRESS PERIOD     10

 HEAD WILL BE SAVED ON UNIT 1017 AT END OF TIME STEP    6, STRESS PERIOD   10


  VOLUME BUDGET FOR ENTIRE MODEL AT END OF TIME STEP    6, STRESS PERIOD  10
  ---------------------------------------------------------------------------------------------------

     CUMULATIVE VOLUME      L**3       RATES FOR THIS TIME STEP      L**3/T          PACKAGE NAME    
     ------------------                 ------------------------                     ----------------

           IN:                                      IN:
           ---                                      ---
              STO-SS =          16.1055                STO-SS =       1.1970E-03     STORAGE         
              STO-SY =       10092.2829                STO-SY =           0.8341     STORAGE         
                 RCH =       36921.3872                   RCH =         190.6849     RCHA            
                 CHD =          58.2744                   CHD =           0.0000     CHD             

            TOTAL IN =       47088.0499              TOTAL IN =         191.5201

          OUT:                                     OUT:
          ----                                     ----
              STO-SS =           7.0511                STO-SS =       4.7273E-02     STORAGE         
              STO-SY =        4666.9484                STO-SY =          29.6000     STORAGE         
                 RCH =           0.0000                   RCH =           0.0000     RCHA            
                 CHD =       42413.7701                   CHD =         161.8706     CHD             

           TOTAL OUT =       47087.7697             TOTAL OUT =         191.5179

            IN - OUT =           0.2802              IN - OUT =       2.2471E-03

 PERCENT DISCREPANCY =           0.00     PERCENT DISCREPANCY =           0.00




         TIME SUMMARY AT END OF TIME STEP    6 IN STRESS PERIOD   10
                    SECONDS     MINUTES      HOURS       DAYS        YEARS
                    -----------------------------------------------------------
   TIME STEP LENGTH 2.59200E+05  4320.0      72.000      3.0000     8.21355E-03
 STRESS PERIOD TIME 1.55520E+06  25920.      432.00      18.000     4.92813E-02
         TOTAL TIME 2.23776E+07 3.72960E+05  6216.0      259.00     0.70910    
 UBDSV1 SAVING           STO-SS ON UNIT   1016 AT TIME STEP      7, STRESS PERIOD     10
 UBDSV1 SAVING           STO-SY ON UNIT   1016 AT TIME STEP      7, STRESS PERIOD     10
 UBDSV1 SAVING     FLOW-JA-FACE ON UNIT   1016 AT TIME STEP      7, STRESS PERIOD     10
 UBDSV06 SAVING              RCH IN MODEL TEST_TRANS       PACKAGE TEST_TRANS      CONNECTED TO MODEL TEST_TRANS       PACKAGE RCHA             ON UNIT   1016 AT TIME STEP      7, STRESS PERIOD     10
 UBDSV06 SAVING              CHD IN MODEL TEST_TRANS       PACKAGE TEST_TRANS      CONNECTED TO MODEL TEST_TRANS       PACKAGE CHD              ON UNIT   1016 AT TIME STEP      7, STRESS PERIOD     10

 HEAD WILL BE SAVED ON UNIT 1017 AT END OF TIME STEP    7, STRESS PERIOD   10


  VOLUME BUDGET FOR ENTIRE MODEL AT END OF TIME STEP    7, STRESS PERIOD  10
  ---------------------------------------------------------------------------------------------------

     CUMULATIVE VOLUME      L**3       RATES FOR THIS TIME STEP      L**3/T          PACKAGE NAME    
     ------------------                 ------------------------                     ----------------

           IN:                                      IN:
           ---                                      ---
              STO-SS =          16.1065                STO-SS =       3.2884E-04     STORAGE         
              STO-SY =       10092.9755                STO-SY =           0.2309     STORAGE         
                 RCH =       37493.4417                   RCH =         190.6849     RCHA            
                 CHD =          58.2744                   CHD =           0.0000     CHD             

            TOTAL IN =       47660.7980              TOTAL IN =         190.9160

          OUT:                                     OUT:
          ----                                     ----
              STO-SS =           7.1909                STO-SS =       4.6607E-02     STORAGE         
              STO-SY =        4754.5178                STO-SY =          29.1898     STORAGE         
                 RCH =           0.0000                   RCH =           0.0000     RCHA            
                 CHD =       42898.8198                   CHD =         161.6832     CHD             

           TOTAL OUT =       47660.5286             TOTAL OUT =         190.9196

            IN - OUT =           0.2694              IN - OUT =      -3.5948E-03

 PERCENT DISCREPANCY =           0.00     PERCENT DISCREPANCY =          -0.00




         TIME SUMMARY AT END OF TIME STEP    7 IN STRESS PERIOD   10
                    SECONDS     MINUTES      HOURS       DAYS        YEARS
                    -----------------------------------------------------------
   TIME STEP LENGTH 2.59200E+05  4320.0      72.000      3.0000     8.21355E-03
 STRESS PERIOD TIME 1.81440E+06  30240.      504.00      21.000     5.74949E-02
         TOTAL TIME 2.26368E+07 3.77280E+05  6288.0      262.00     0.71732    
 UBDSV1 SAVING           STO-SS ON UNIT   1016 AT TIME STEP      8, STRESS PERIOD     10
 UBDSV1 SAVING           STO-SY ON UNIT   1016 AT TIME STEP      8, STRESS PERIOD     10
 UBDSV1 SAVING     FLOW-JA-FACE ON UNIT   1016 AT TIME STEP      8, STRESS PERIOD     10
 UBDSV06 SAVING              RCH IN MODEL TEST_TRANS       PACKAGE TEST_TRANS      CONNECTED TO MODEL TEST_TRANS       PACKAGE RCHA             ON UNIT   1016 AT TIME STEP      8, STRESS PERIOD     10
 UBDSV06 SAVING              CHD IN MODEL TEST_TRANS       PACKAGE TEST_TRANS      CONNECTED TO MODEL TEST_TRANS       PACKAGE CHD              ON UNIT   1016 AT TIME STEP      8, STRESS PERIOD     10

 HEAD WILL BE SAVED ON UNIT 1017 AT END OF TIME STEP    8, STRESS PERIOD   10


  VOLUME BUDGET FOR ENTIRE MODEL AT END OF TIME STEP    8, STRESS PERIOD  10
  ---------------------------------------------------------------------------------------------------

     CUMULATIVE VOLUME      L**3       RATES FOR THIS TIME STEP      L**3/T          PACKAGE NAME    
     ------------------                 ------------------------                     ----------------

           IN:                                      IN:
           ---                                      ---
              STO-SS =          16.1065                STO-SS =       8.0762E-06     STORAGE         
              STO-SY =       10092.9928                STO-SY =       5.7776E-03     STORAGE         
                 RCH =       38065.4963                   RCH =         190.6849     RCHA            
                 CHD =          58.2744                   CHD =           0.0000     CHD             

            TOTAL IN =       48232.8700              TOTAL IN =         190.6906

          OUT:                                     OUT:
          ----                                     ----
              STO-SS =           7.3297                STO-SS =       4.6251E-02     STORAGE         
              STO-SY =        4841.4819                STO-SY =          28.9880     STORAGE         
                 RCH =           0.0000                   RCH =           0.0000     RCHA            
                 CHD =       43383.8128                   CHD =         161.6643     CHD             

           TOTAL OUT =       48232.6244             TOTAL OUT =         190.6986

            IN - OUT =           0.2456              IN - OUT =      -7.9588E-03

 PERCENT DISCREPANCY =           0.00     PERCENT DISCREPANCY =          -0.00




         TIME SUMMARY AT END OF TIME STEP    8 IN STRESS PERIOD   10
                    SECONDS     MINUTES      HOURS       DAYS        YEARS
                    -----------------------------------------------------------
   TIME STEP LENGTH 2.59200E+05  4320.0      72.000      3.0000     8.21355E-03
 STRESS PERIOD TIME 2.07360E+06  34560.      576.00      24.000     6.57084E-02
         TOTAL TIME 2.28960E+07 3.81600E+05  6360.0      265.00     0.72553    
 UBDSV1 SAVING           STO-SS ON UNIT   1016 AT TIME STEP      9, STRESS PERIOD     10
 UBDSV1 SAVING           STO-SY ON UNIT   1016 AT TIME STEP      9, STRESS PERIOD     10
 UBDSV1 SAVING     FLOW-JA-FACE ON UNIT   1016 AT TIME STEP      9, STRESS PERIOD     10
 UBDSV06 SAVING              RCH IN MODEL TEST_TRANS       PACKAGE TEST_TRANS      CONNECTED TO MODEL TEST_TRANS       PACKAGE RCHA             ON UNIT   1016 AT TIME STEP      9, STRESS PERIOD     10
 UBDSV06 SAVING              CHD IN MODEL TEST_TRANS       PACKAGE TEST_TRANS      CONNECTED TO MODEL TEST_TRANS       PACKAGE CHD              ON UNIT   1016 AT TIME STEP      9, STRESS PERIOD     10

 HEAD WILL BE SAVED ON UNIT 1017 AT END OF TIME STEP    9, STRESS PERIOD   10


  VOLUME BUDGET FOR ENTIRE MODEL AT END OF TIME STEP    9, STRESS PERIOD  10
  ---------------------------------------------------------------------------------------------------

     CUMULATIVE VOLUME      L**3       RATES FOR THIS TIME STEP      L**3/T          PACKAGE NAME    
     ------------------                 ------------------------                     ----------------

           IN:                                      IN:
           ---                                      ---
              STO-SS =          16.1065                STO-SS =           0.0000     STORAGE         
              STO-SY =       10092.9928                STO-SY =           0.0000     STORAGE         
                 RCH =       38637.5509                   RCH =         190.6849     RCHA            
                 CHD =          58.2744                   CHD =           0.0000     CHD             

            TOTAL IN =       48804.9245              TOTAL IN =         190.6849

          OUT:                                     OUT:
          ----                                     ----
              STO-SS =           7.4679                STO-SS =       4.6053E-02     STORAGE         
              STO-SY =        4928.1650                STO-SY =          28.8944     STORAGE         
                 RCH =           0.0000                   RCH =           0.0000     RCHA            
                 CHD =       43869.0798                   CHD =         161.7557     CHD             

           TOTAL OUT =       48804.7127             TOTAL OUT =         190.6961

            IN - OUT =           0.2119              IN - OUT =      -1.1222E-02

 PERCENT DISCREPANCY =           0.00     PERCENT DISCREPANCY =          -0.01




         TIME SUMMARY AT END OF TIME STEP    9 IN STRESS PERIOD   10
                    SECONDS     MINUTES      HOURS       DAYS        YEARS
                    -----------------------------------------------------------
   TIME STEP LENGTH 2.59200E+05  4320.0      72.000      3.0000     8.21355E-03
 STRESS PERIOD TIME 2.33280E+06  38880.      648.00      27.000     7.39220E-02
         TOTAL TIME 2.31552E+07 3.85920E+05  6432.0      268.00     0.73374    
 UBDSV1 SAVING           STO-SS ON UNIT   1016 AT TIME STEP     10, STRESS PERIOD     10
 UBDSV1 SAVING           STO-SY ON UNIT   1016 AT TIME STEP     10, STRESS PERIOD     10
 UBDSV1 SAVING     FLOW-JA-FACE ON UNIT   1016 AT TIME STEP     10, STRESS PERIOD     10
 UBDSV06 SAVING              RCH IN MODEL TEST_TRANS       PACKAGE TEST_TRANS      CONNECTED TO MODEL TEST_TRANS       PACKAGE RCHA             ON UNIT   1016 AT TIME STEP     10, STRESS PERIOD     10
 UBDSV06 SAVING              CHD IN MODEL TEST_TRANS       PACKAGE TEST_TRANS      CONNECTED TO MODEL TEST_TRANS       PACKAGE CHD              ON UNIT   1016 AT TIME STEP     10, STRESS PERIOD     10

 HEAD WILL BE SAVED ON UNIT 1017 AT END OF TIME STEP   10, STRESS PERIOD   10


  VOLUME BUDGET FOR ENTIRE MODEL AT END OF TIME STEP   10, STRESS PERIOD  10
  ---------------------------------------------------------------------------------------------------

     CUMULATIVE VOLUME      L**3       RATES FOR THIS TIME STEP      L**3/T          PACKAGE NAME    
     ------------------                 ------------------------                     ----------------

           IN:                                      IN:
           ---                                      ---
              STO-SS =          16.1065                STO-SS =           0.0000     STORAGE         
              STO-SY =       10092.9928                STO-SY =           0.0000     STORAGE         
                 RCH =       39209.6055                   RCH =         190.6849     RCHA            
                 CHD =          58.2744                   CHD =           0.0000     CHD             

            TOTAL IN =       49376.9791              TOTAL IN =         190.6849

          OUT:                                     OUT:
          ----                                     ----
              STO-SS =           7.6051                STO-SS =       4.5755E-02     STORAGE         
              STO-SY =        5014.3552                STO-SY =          28.7301     STORAGE         
                 RCH =           0.0000                   RCH =           0.0000     RCHA            
                 CHD =       44354.8481                   CHD =         161.9228     CHD             

           TOTAL OUT =       49376.8084             TOTAL OUT =         190.6986

            IN - OUT =           0.1707              IN - OUT =      -1.3730E-02

 PERCENT DISCREPANCY =           0.00     PERCENT DISCREPANCY =          -0.01




         TIME SUMMARY AT END OF TIME STEP   10 IN STRESS PERIOD   10
                    SECONDS     MINUTES      HOURS       DAYS        YEARS
                    -----------------------------------------------------------
   TIME STEP LENGTH 2.59200E+05  4320.0      72.000      3.0000     8.21355E-03
 STRESS PERIOD TIME 2.59200E+06  43200.      720.00      30.000     8.21355E-02
         TOTAL TIME 2.34144E+07 3.90240E+05  6504.0      271.00     0.74196    

 OUTPUT CONTROL FOR STRESS PERIOD 11 IS REPEATED USING SETTINGS FROM A PREVIOUS STRESS PERIOD.


 STRESS PERIOD 11 IS TRANSIENT


                 RECHARGE =  0.2465750E-02
 UBDSV1 SAVING           STO-SS ON UNIT   1016 AT TIME STEP      1, STRESS PERIOD     11
 UBDSV1 SAVING           STO-SY ON UNIT   1016 AT TIME STEP      1, STRESS PERIOD     11
 UBDSV1 SAVING     FLOW-JA-FACE ON UNIT   1016 AT TIME STEP      1, STRESS PERIOD     11
 UBDSV06 SAVING              RCH IN MODEL TEST_TRANS       PACKAGE TEST_TRANS      CONNECTED TO MODEL TEST_TRANS       PACKAGE RCHA             ON UNIT   1016 AT TIME STEP      1, STRESS PERIOD     11
 UBDSV06 SAVING              CHD IN MODEL TEST_TRANS       PACKAGE TEST_TRANS      CONNECTED TO MODEL TEST_TRANS       PACKAGE CHD              ON UNIT   1016 AT TIME STEP      1, STRESS PERIOD     11

 HEAD WILL BE SAVED ON UNIT 1017 AT END OF TIME STEP    1, STRESS PERIOD   11


  VOLUME BUDGET FOR ENTIRE MODEL AT END OF TIME STEP    1, STRESS PERIOD  11
  ---------------------------------------------------------------------------------------------------

     CUMULATIVE VOLUME      L**3       RATES FOR THIS TIME STEP      L**3/T          PACKAGE NAME    
     ------------------                 ------------------------                     ----------------

           IN:                                      IN:
           ---                                      ---
              STO-SS =          16.2310                STO-SS =       4.1508E-02     STORAGE         
              STO-SY =       10181.1667                STO-SY =          29.3913     STORAGE         
                 RCH =       39853.1662                   RCH =         214.5203     RCHA            
                 CHD =          58.2744                   CHD =           0.0000     CHD             

            TOTAL IN =       50108.8383              TOTAL IN =         243.9531

          OUT:                                     OUT:
          ----                                     ----
              STO-SS =           7.8179                STO-SS =       7.0933E-02     STORAGE         
              STO-SY =        5147.6901                STO-SY =          44.4450     STORAGE         
                 RCH =           0.0000                   RCH =           0.0000     RCHA            
                 CHD =       44953.1657                   CHD =         199.4392     CHD             

           TOTAL OUT =       50108.6737             TOTAL OUT =         243.9551

            IN - OUT =           0.1646              IN - OUT =      -2.0311E-03

 PERCENT DISCREPANCY =           0.00     PERCENT DISCREPANCY =          -0.00




         TIME SUMMARY AT END OF TIME STEP    1 IN STRESS PERIOD   11
                    SECONDS     MINUTES      HOURS       DAYS        YEARS
                    -----------------------------------------------------------
   TIME STEP LENGTH 2.59200E+05  4320.0      72.000      3.0000     8.21355E-03
 STRESS PERIOD TIME 2.59200E+05  4320.0      72.000      3.0000     8.21355E-03
         TOTAL TIME 2.36736E+07 3.94560E+05  6576.0      274.00     0.75017    
 UBDSV1 SAVING           STO-SS ON UNIT   1016 AT TIME STEP      2, STRESS PERIOD     11
 UBDSV1 SAVING           STO-SY ON UNIT   1016 AT TIME STEP      2, STRESS PERIOD     11
 UBDSV1 SAVING     FLOW-JA-FACE ON UNIT   1016 AT TIME STEP      2, STRESS PERIOD     11
 UBDSV06 SAVING              RCH IN MODEL TEST_TRANS       PACKAGE TEST_TRANS      CONNECTED TO MODEL TEST_TRANS       PACKAGE RCHA             ON UNIT   1016 AT TIME STEP      2, STRESS PERIOD     11
 UBDSV06 SAVING              CHD IN MODEL TEST_TRANS       PACKAGE TEST_TRANS      CONNECTED TO MODEL TEST_TRANS       PACKAGE CHD              ON UNIT   1016 AT TIME STEP      2, STRESS PERIOD     11

 HEAD WILL BE SAVED ON UNIT 1017 AT END OF TIME STEP    2, STRESS PERIOD   11


  VOLUME BUDGET FOR ENTIRE MODEL AT END OF TIME STEP    2, STRESS PERIOD  11
  ---------------------------------------------------------------------------------------------------

     CUMULATIVE VOLUME      L**3       RATES FOR THIS TIME STEP      L**3/T          PACKAGE NAME    
     ------------------                 ------------------------                     ----------------

           IN:                                      IN:
           ---                                      ---
              STO-SS =          16.2922                STO-SS =       2.0401E-02     STORAGE         
              STO-SY =       10224.1290                STO-SY =          14.3208     STORAGE         
                 RCH =       40496.7270                   RCH =         214.5203     RCHA            
                 CHD =          58.2744                   CHD =           0.0000     CHD             

            TOTAL IN =       50795.4225              TOTAL IN =         228.8614

          OUT:                                     OUT:
          ----                                     ----
              STO-SS =           8.0188                STO-SS =       6.6955E-02     STORAGE         
              STO-SY =        5273.2278                STO-SY =          41.8459     STORAGE         
                 RCH =           0.0000                   RCH =           0.0000     RCHA            
                 CHD =       45514.0259                   CHD =         186.9534     CHD             

           TOTAL OUT =       50795.2725             TOTAL OUT =         228.8663

            IN - OUT =           0.1500              IN - OUT =      -4.8594E-03

 PERCENT DISCREPANCY =           0.00     PERCENT DISCREPANCY =          -0.00




         TIME SUMMARY AT END OF TIME STEP    2 IN STRESS PERIOD   11
                    SECONDS     MINUTES      HOURS       DAYS        YEARS
                    -----------------------------------------------------------
   TIME STEP LENGTH 2.59200E+05  4320.0      72.000      3.0000     8.21355E-03
 STRESS PERIOD TIME 5.18400E+05  8640.0      144.00      6.0000     1.64271E-02
         TOTAL TIME 2.39328E+07 3.98880E+05  6648.0      277.00     0.75838    
 UBDSV1 SAVING           STO-SS ON UNIT   1016 AT TIME STEP      3, STRESS PERIOD     11
 UBDSV1 SAVING           STO-SY ON UNIT   1016 AT TIME STEP      3, STRESS PERIOD     11
 UBDSV1 SAVING     FLOW-JA-FACE ON UNIT   1016 AT TIME STEP      3, STRESS PERIOD     11
 UBDSV06 SAVING              RCH IN MODEL TEST_TRANS       PACKAGE TEST_TRANS      CONNECTED TO MODEL TEST_TRANS       PACKAGE RCHA             ON UNIT   1016 AT TIME STEP      3, STRESS PERIOD     11
 UBDSV06 SAVING              CHD IN MODEL TEST_TRANS       PACKAGE TEST_TRANS      CONNECTED TO MODEL TEST_TRANS       PACKAGE CHD              ON UNIT   1016 AT TIME STEP      3, STRESS PERIOD     11

 HEAD WILL BE SAVED ON UNIT 1017 AT END OF TIME STEP    3, STRESS PERIOD   11


  VOLUME BUDGET FOR ENTIRE MODEL AT END OF TIME STEP    3, STRESS PERIOD  11
  ---------------------------------------------------------------------------------------------------

     CUMULATIVE VOLUME      L**3       RATES FOR THIS TIME STEP      L**3/T          PACKAGE NAME    
     ------------------                 ------------------------                     ----------------

           IN:                                      IN:
           ---                                      ---
              STO-SS =          16.3258                STO-SS =       1.1183E-02     STORAGE         
              STO-SY =       10247.5541                STO-SY =           7.8084     STORAGE         
                 RCH =       41140.2877                   RCH =         214.5203     RCHA            
                 CHD =          58.2744                   CHD =           0.0000     CHD             

            TOTAL IN =       51462.4420              TOTAL IN =         222.3398

          OUT:                                     OUT:
          ----                                     ----
              STO-SS =           8.2107                STO-SS =       6.3985E-02     STORAGE         
              STO-SY =        5392.9988                STO-SY =          39.9237     STORAGE         
                 RCH =           0.0000                   RCH =           0.0000     RCHA            
                 CHD =       46061.0861                   CHD =         182.3534     CHD             

           TOTAL OUT =       51462.2956             TOTAL OUT =         222.3410

            IN - OUT =           0.1463              IN - OUT =      -1.2330E-03

 PERCENT DISCREPANCY =           0.00     PERCENT DISCREPANCY =          -0.00




         TIME SUMMARY AT END OF TIME STEP    3 IN STRESS PERIOD   11
                    SECONDS     MINUTES      HOURS       DAYS        YEARS
                    -----------------------------------------------------------
   TIME STEP LENGTH 2.59200E+05  4320.0      72.000      3.0000     8.21355E-03
 STRESS PERIOD TIME 7.77600E+05  12960.      216.00      9.0000     2.46407E-02
         TOTAL TIME 2.41920E+07 4.03200E+05  6720.0      280.00     0.76660    
 UBDSV1 SAVING           STO-SS ON UNIT   1016 AT TIME STEP      4, STRESS PERIOD     11
 UBDSV1 SAVING           STO-SY ON UNIT   1016 AT TIME STEP      4, STRESS PERIOD     11
 UBDSV1 SAVING     FLOW-JA-FACE ON UNIT   1016 AT TIME STEP      4, STRESS PERIOD     11
 UBDSV06 SAVING              RCH IN MODEL TEST_TRANS       PACKAGE TEST_TRANS      CONNECTED TO MODEL TEST_TRANS       PACKAGE RCHA             ON UNIT   1016 AT TIME STEP      4, STRESS PERIOD     11
 UBDSV06 SAVING              CHD IN MODEL TEST_TRANS       PACKAGE TEST_TRANS      CONNECTED TO MODEL TEST_TRANS       PACKAGE CHD              ON UNIT   1016 AT TIME STEP      4, STRESS PERIOD     11

 HEAD WILL BE SAVED ON UNIT 1017 AT END OF TIME STEP    4, STRESS PERIOD   11


  VOLUME BUDGET FOR ENTIRE MODEL AT END OF TIME STEP    4, STRESS PERIOD  11
  ---------------------------------------------------------------------------------------------------

     CUMULATIVE VOLUME      L**3       RATES FOR THIS TIME STEP      L**3/T          PACKAGE NAME    
     ------------------                 ------------------------                     ----------------

           IN:                                      IN:
           ---                                      ---
              STO-SS =          16.3443                STO-SS =       6.1622E-03     STORAGE         
              STO-SY =       10260.4360                STO-SY =           4.2940     STORAGE         
                 RCH =       41783.8485                   RCH =         214.5203     RCHA            
                 CHD =          58.2744                   CHD =           0.0000     CHD             

            TOTAL IN =       52118.9031              TOTAL IN =         218.8204

          OUT:                                     OUT:
          ----                                     ----
              STO-SS =           8.3961                STO-SS =       6.1778E-02     STORAGE         
              STO-SY =        5508.5193                STO-SY =          38.5068     STORAGE         
                 RCH =           0.0000                   RCH =           0.0000     RCHA            
                 CHD =       46601.8426                   CHD =         180.2522     CHD             

           TOTAL OUT =       52118.7579             TOTAL OUT =         218.8208

            IN - OUT =           0.1452              IN - OUT =      -3.8555E-04

 PERCENT DISCREPANCY =           0.00     PERCENT DISCREPANCY =          -0.00




         TIME SUMMARY AT END OF TIME STEP    4 IN STRESS PERIOD   11
                    SECONDS     MINUTES      HOURS       DAYS        YEARS
                    -----------------------------------------------------------
   TIME STEP LENGTH 2.59200E+05  4320.0      72.000      3.0000     8.21355E-03
 STRESS PERIOD TIME 1.03680E+06  17280.      288.00      12.000     3.28542E-02
         TOTAL TIME 2.44512E+07 4.07520E+05  6792.0      283.00     0.77481    
 UBDSV1 SAVING           STO-SS ON UNIT   1016 AT TIME STEP      5, STRESS PERIOD     11
 UBDSV1 SAVING           STO-SY ON UNIT   1016 AT TIME STEP      5, STRESS PERIOD     11
 UBDSV1 SAVING     FLOW-JA-FACE ON UNIT   1016 AT TIME STEP      5, STRESS PERIOD     11
 UBDSV06 SAVING              RCH IN MODEL TEST_TRANS       PACKAGE TEST_TRANS      CONNECTED TO MODEL TEST_TRANS       PACKAGE RCHA             ON UNIT   1016 AT TIME STEP      5, STRESS PERIOD     11
 UBDSV06 SAVING              CHD IN MODEL TEST_TRANS       PACKAGE TEST_TRANS      CONNECTED TO MODEL TEST_TRANS       PACKAGE CHD              ON UNIT   1016 AT TIME STEP      5, STRESS PERIOD     11

 HEAD WILL BE SAVED ON UNIT 1017 AT END OF TIME STEP    5, STRESS PERIOD   11


  VOLUME BUDGET FOR ENTIRE MODEL AT END OF TIME STEP    5, STRESS PERIOD  11
  ---------------------------------------------------------------------------------------------------

     CUMULATIVE VOLUME      L**3       RATES FOR THIS TIME STEP      L**3/T          PACKAGE NAME    
     ------------------                 ------------------------                     ----------------

           IN:                                      IN:
           ---                                      ---
              STO-SS =          16.3537                STO-SS =       3.1282E-03     STORAGE         
              STO-SY =       10266.9828                STO-SY =           2.1823     STORAGE         
                 RCH =       42427.4092                   RCH =         214.5203     RCHA            
                 CHD =          58.2744                   CHD =           0.0000     CHD             

            TOTAL IN =       52769.0201              TOTAL IN =         216.7057

          OUT:                                     OUT:
          ----                                     ----
              STO-SS =           8.5764                STO-SS =       6.0113E-02     STORAGE         
              STO-SY =        5620.8595                STO-SY =          37.4467     STORAGE         
                 RCH =           0.0000                   RCH =           0.0000     RCHA            
                 CHD =       47139.4415                   CHD =         179.1997     CHD             

           TOTAL OUT =       52768.8774             TOTAL OUT =         216.7065

            IN - OUT =           0.1427              IN - OUT =      -8.3933E-04

 PERCENT DISCREPANCY =           0.00     PERCENT DISCREPANCY =          -0.00




         TIME SUMMARY AT END OF TIME STEP    5 IN STRESS PERIOD   11
                    SECONDS     MINUTES      HOURS       DAYS        YEARS
                    -----------------------------------------------------------
   TIME STEP LENGTH 2.59200E+05  4320.0      72.000      3.0000     8.21355E-03
 STRESS PERIOD TIME 1.29600E+06  21600.      360.00      15.000     4.10678E-02
         TOTAL TIME 2.47104E+07 4.11840E+05  6864.0      286.00     0.78303    
 UBDSV1 SAVING           STO-SS ON UNIT   1016 AT TIME STEP      6, STRESS PERIOD     11
 UBDSV1 SAVING           STO-SY ON UNIT   1016 AT TIME STEP      6, STRESS PERIOD     11
 UBDSV1 SAVING     FLOW-JA-FACE ON UNIT   1016 AT TIME STEP      6, STRESS PERIOD     11
 UBDSV06 SAVING              RCH IN MODEL TEST_TRANS       PACKAGE TEST_TRANS      CONNECTED TO MODEL TEST_TRANS       PACKAGE RCHA             ON UNIT   1016 AT TIME STEP      6, STRESS PERIOD     11
 UBDSV06 SAVING              CHD IN MODEL TEST_TRANS       PACKAGE TEST_TRANS      CONNECTED TO MODEL TEST_TRANS       PACKAGE CHD              ON UNIT   1016 AT TIME STEP      6, STRESS PERIOD     11

 HEAD WILL BE SAVED ON UNIT 1017 AT END OF TIME STEP    6, STRESS PERIOD   11


  VOLUME BUDGET FOR ENTIRE MODEL AT END OF TIME STEP    6, STRESS PERIOD  11
  ---------------------------------------------------------------------------------------------------

     CUMULATIVE VOLUME      L**3       RATES FOR THIS TIME STEP      L**3/T          PACKAGE NAME    
     ------------------                 ------------------------                     ----------------

           IN:                                      IN:
           ---                                      ---
              STO-SS =          16.3576                STO-SS =       1.3199E-03     STORAGE         
              STO-SY =       10269.7568                STO-SY =           0.9247     STORAGE         
                 RCH =       43070.9700                   RCH =         214.5203     RCHA            
                 CHD =          58.2744                   CHD =           0.0000     CHD             

            TOTAL IN =       53415.3588              TOTAL IN =         215.4462

          OUT:                                     OUT:
          ----                                     ----
              STO-SS =           8.7532                STO-SS =       5.8935E-02     STORAGE         
              STO-SY =        5730.9794                STO-SY =          36.7066     STORAGE         
                 RCH =           0.0000                   RCH =           0.0000     RCHA            
                 CHD =       47675.4871                   CHD =         178.6819     CHD             

           TOTAL OUT =       53415.2197             TOTAL OUT =         215.4474

            IN - OUT =           0.1391              IN - OUT =      -1.1905E-03

 PERCENT DISCREPANCY =           0.00     PERCENT DISCREPANCY =          -0.00




         TIME SUMMARY AT END OF TIME STEP    6 IN STRESS PERIOD   11
                    SECONDS     MINUTES      HOURS       DAYS        YEARS
                    -----------------------------------------------------------
   TIME STEP LENGTH 2.59200E+05  4320.0      72.000      3.0000     8.21355E-03
 STRESS PERIOD TIME 1.55520E+06  25920.      432.00      18.000     4.92813E-02
         TOTAL TIME 2.49696E+07 4.16160E+05  6936.0      289.00     0.79124    
 UBDSV1 SAVING           STO-SS ON UNIT   1016 AT TIME STEP      7, STRESS PERIOD     11
 UBDSV1 SAVING           STO-SY ON UNIT   1016 AT TIME STEP      7, STRESS PERIOD     11
 UBDSV1 SAVING     FLOW-JA-FACE ON UNIT   1016 AT TIME STEP      7, STRESS PERIOD     11
 UBDSV06 SAVING              RCH IN MODEL TEST_TRANS       PACKAGE TEST_TRANS      CONNECTED TO MODEL TEST_TRANS       PACKAGE RCHA             ON UNIT   1016 AT TIME STEP      7, STRESS PERIOD     11
 UBDSV06 SAVING              CHD IN MODEL TEST_TRANS       PACKAGE TEST_TRANS      CONNECTED TO MODEL TEST_TRANS       PACKAGE CHD              ON UNIT   1016 AT TIME STEP      7, STRESS PERIOD     11

 HEAD WILL BE SAVED ON UNIT 1017 AT END OF TIME STEP    7, STRESS PERIOD   11


  VOLUME BUDGET FOR ENTIRE MODEL AT END OF TIME STEP    7, STRESS PERIOD  11
  ---------------------------------------------------------------------------------------------------

     CUMULATIVE VOLUME      L**3       RATES FOR THIS TIME STEP      L**3/T          PACKAGE NAME    
     ------------------                 ------------------------                     ----------------

           IN:                                      IN:
           ---                                      ---
              STO-SS =          16.3586                STO-SS =       3.3752E-04     STORAGE         
              STO-SY =       10270.4735                STO-SY =           0.2389     STORAGE         
                 RCH =       43714.5307                   RCH =         214.5203     RCHA            
                 CHD =          58.2744                   CHD =           0.0000     CHD             

            TOTAL IN =       54059.6372              TOTAL IN =         214.7595

          OUT:                                     OUT:
          ----                                     ----
              STO-SS =           8.9277                STO-SS =       5.8168E-02     STORAGE         
              STO-SY =        5839.6921                STO-SY =          36.2376     STORAGE         
                 RCH =           0.0000                   RCH =           0.0000     RCHA            
                 CHD =       48210.8943                   CHD =         178.4691     CHD             

           TOTAL OUT =       54059.5141             TOTAL OUT =         214.7648

            IN - OUT =           0.1231              IN - OUT =      -5.3253E-03

 PERCENT DISCREPANCY =           0.00     PERCENT DISCREPANCY =          -0.00




         TIME SUMMARY AT END OF TIME STEP    7 IN STRESS PERIOD   11
                    SECONDS     MINUTES      HOURS       DAYS        YEARS
                    -----------------------------------------------------------
   TIME STEP LENGTH 2.59200E+05  4320.0      72.000      3.0000     8.21355E-03
 STRESS PERIOD TIME 1.81440E+06  30240.      504.00      21.000     5.74949E-02
         TOTAL TIME 2.52288E+07 4.20480E+05  7008.0      292.00     0.79945    
 UBDSV1 SAVING           STO-SS ON UNIT   1016 AT TIME STEP      8, STRESS PERIOD     11
 UBDSV1 SAVING           STO-SY ON UNIT   1016 AT TIME STEP      8, STRESS PERIOD     11
 UBDSV1 SAVING     FLOW-JA-FACE ON UNIT   1016 AT TIME STEP      8, STRESS PERIOD     11
 UBDSV06 SAVING              RCH IN MODEL TEST_TRANS       PACKAGE TEST_TRANS      CONNECTED TO MODEL TEST_TRANS       PACKAGE RCHA             ON UNIT   1016 AT TIME STEP      8, STRESS PERIOD     11
 UBDSV06 SAVING              CHD IN MODEL TEST_TRANS       PACKAGE TEST_TRANS      CONNECTED TO MODEL TEST_TRANS       PACKAGE CHD              ON UNIT   1016 AT TIME STEP      8, STRESS PERIOD     11

 HEAD WILL BE SAVED ON UNIT 1017 AT END OF TIME STEP    8, STRESS PERIOD   11


  VOLUME BUDGET FOR ENTIRE MODEL AT END OF TIME STEP    8, STRESS PERIOD  11
  ---------------------------------------------------------------------------------------------------

     CUMULATIVE VOLUME      L**3       RATES FOR THIS TIME STEP      L**3/T          PACKAGE NAME    
     ------------------                 ------------------------                     ----------------

           IN:                                      IN:
           ---                                      ---
              STO-SS =          16.3586                STO-SS =       4.0101E-06     STORAGE         
              STO-SY =       10270.4822                STO-SY =       2.8918E-03     STORAGE         
                 RCH =       44358.0915                   RCH =         214.5203     RCHA            
                 CHD =          58.2744                   CHD =           0.0000     CHD             

            TOTAL IN =       54703.2066              TOTAL IN =         214.5231

          OUT:                                     OUT:
          ----                                     ----
              STO-SS =           9.1010                STO-SS =       5.7765E-02     STORAGE         
              STO-SY =        5947.7412                STO-SY =          36.0164     STORAGE         
                 RCH =           0.0000                   RCH =           0.0000     RCHA            
                 CHD =       48746.2727                   CHD =         178.4595     CHD             

           TOTAL OUT =       54703.1149             TOTAL OUT =         214.5336

            IN - OUT =       9.1746E-02              IN - OUT =      -1.0453E-02

 PERCENT DISCREPANCY =           0.00     PERCENT DISCREPANCY =          -0.00




         TIME SUMMARY AT END OF TIME STEP    8 IN STRESS PERIOD   11
                    SECONDS     MINUTES      HOURS       DAYS        YEARS
                    -----------------------------------------------------------
   TIME STEP LENGTH 2.59200E+05  4320.0      72.000      3.0000     8.21355E-03
 STRESS PERIOD TIME 2.07360E+06  34560.      576.00      24.000     6.57084E-02
         TOTAL TIME 2.54880E+07 4.24800E+05  7080.0      295.00     0.80767    
 UBDSV1 SAVING           STO-SS ON UNIT   1016 AT TIME STEP      9, STRESS PERIOD     11
 UBDSV1 SAVING           STO-SY ON UNIT   1016 AT TIME STEP      9, STRESS PERIOD     11
 UBDSV1 SAVING     FLOW-JA-FACE ON UNIT   1016 AT TIME STEP      9, STRESS PERIOD     11
 UBDSV06 SAVING              RCH IN MODEL TEST_TRANS       PACKAGE TEST_TRANS      CONNECTED TO MODEL TEST_TRANS       PACKAGE RCHA             ON UNIT   1016 AT TIME STEP      9, STRESS PERIOD     11
 UBDSV06 SAVING              CHD IN MODEL TEST_TRANS       PACKAGE TEST_TRANS      CONNECTED TO MODEL TEST_TRANS       PACKAGE CHD              ON UNIT   1016 AT TIME STEP      9, STRESS PERIOD     11

 HEAD WILL BE SAVED ON UNIT 1017 AT END OF TIME STEP    9, STRESS PERIOD   11


  VOLUME BUDGET FOR ENTIRE MODEL AT END OF TIME STEP    9, STRESS PERIOD  11
  ---------------------------------------------------------------------------------------------------

     CUMULATIVE VOLUME      L**3       RATES FOR THIS TIME STEP      L**3/T          PACKAGE NAME    
     ------------------                 ------------------------                     ----------------

           IN:                                      IN:
           ---                                      ---
              STO-SS =          16.3586                STO-SS =           0.0000     STORAGE         
              STO-SY =       10270.4822                STO-SY =           0.0000     STORAGE         
                 RCH =       45001.6522                   RCH =         214.5203     RCHA            
                 CHD =          58.2744                   CHD =           0.0000     CHD             

            TOTAL IN =       55346.7674              TOTAL IN =         214.5203

          OUT:                                     OUT:
          ----                                     ----
              STO-SS =           9.2735                STO-SS =       5.7506E-02     STORAGE         
              STO-SY =        6055.4239                STO-SY =          35.8942     STORAGE         
                 RCH =           0.0000                   RCH =           0.0000     RCHA            
                 CHD =       49282.0218                   CHD =         178.5830     CHD             

           TOTAL OUT =       55346.7193             TOTAL OUT =         214.5348

            IN - OUT =       4.8110E-02              IN - OUT =      -1.4545E-02

 PERCENT DISCREPANCY =           0.00     PERCENT DISCREPANCY =          -0.01




         TIME SUMMARY AT END OF TIME STEP    9 IN STRESS PERIOD   11
                    SECONDS     MINUTES      HOURS       DAYS        YEARS
                    -----------------------------------------------------------
   TIME STEP LENGTH 2.59200E+05  4320.0      72.000      3.0000     8.21355E-03
 STRESS PERIOD TIME 2.33280E+06  38880.      648.00      27.000     7.39220E-02
         TOTAL TIME 2.57472E+07 4.29120E+05  7152.0      298.00     0.81588    
 UBDSV1 SAVING           STO-SS ON UNIT   1016 AT TIME STEP     10, STRESS PERIOD     11
 UBDSV1 SAVING           STO-SY ON UNIT   1016 AT TIME STEP     10, STRESS PERIOD     11
 UBDSV1 SAVING     FLOW-JA-FACE ON UNIT   1016 AT TIME STEP     10, STRESS PERIOD     11
 UBDSV06 SAVING              RCH IN MODEL TEST_TRANS       PACKAGE TEST_TRANS      CONNECTED TO MODEL TEST_TRANS       PACKAGE RCHA             ON UNIT   1016 AT TIME STEP     10, STRESS PERIOD     11
 UBDSV06 SAVING              CHD IN MODEL TEST_TRANS       PACKAGE TEST_TRANS      CONNECTED TO MODEL TEST_TRANS       PACKAGE CHD              ON UNIT   1016 AT TIME STEP     10, STRESS PERIOD     11

 HEAD WILL BE SAVED ON UNIT 1017 AT END OF TIME STEP   10, STRESS PERIOD   11


  VOLUME BUDGET FOR ENTIRE MODEL AT END OF TIME STEP   10, STRESS PERIOD  11
  ---------------------------------------------------------------------------------------------------

     CUMULATIVE VOLUME      L**3       RATES FOR THIS TIME STEP      L**3/T          PACKAGE NAME    
     ------------------                 ------------------------                     ----------------

           IN:                                      IN:
           ---                                      ---
              STO-SS =          16.3586                STO-SS =           0.0000     STORAGE         
              STO-SY =       10270.4822                STO-SY =           0.0000     STORAGE         
                 RCH =       45645.2130                   RCH =         214.5203     RCHA            
                 CHD =          58.2744                   CHD =           0.0000     CHD             

            TOTAL IN =       55990.3281              TOTAL IN =         214.5203

          OUT:                                     OUT:
          ----                                     ----
              STO-SS =           9.4449                STO-SS =       5.7122E-02     STORAGE         
              STO-SY =        6162.4723                STO-SY =          35.6828     STORAGE         
                 RCH =           0.0000                   RCH =           0.0000     RCHA            
                 CHD =       49818.4168                   CHD =         178.7983     CHD             

           TOTAL OUT =       55990.3340             TOTAL OUT =         214.5383

            IN - OUT =      -5.9022E-03              IN - OUT =      -1.8004E-02

 PERCENT DISCREPANCY =          -0.00     PERCENT DISCREPANCY =          -0.01




         TIME SUMMARY AT END OF TIME STEP   10 IN STRESS PERIOD   11
                    SECONDS     MINUTES      HOURS       DAYS        YEARS
                    -----------------------------------------------------------
   TIME STEP LENGTH 2.59200E+05  4320.0      72.000      3.0000     8.21355E-03
 STRESS PERIOD TIME 2.59200E+06  43200.      720.00      30.000     8.21355E-02
         TOTAL TIME 2.60064E+07 4.33440E+05  7224.0      301.00     0.82409    

 OUTPUT CONTROL FOR STRESS PERIOD 12 IS REPEATED USING SETTINGS FROM A PREVIOUS STRESS PERIOD.


 STRESS PERIOD 12 IS TRANSIENT


                 RECHARGE =  0.2739730E-02
 UBDSV1 SAVING           STO-SS ON UNIT   1016 AT TIME STEP      1, STRESS PERIOD     12
 UBDSV1 SAVING           STO-SY ON UNIT   1016 AT TIME STEP      1, STRESS PERIOD     12
 UBDSV1 SAVING     FLOW-JA-FACE ON UNIT   1016 AT TIME STEP      1, STRESS PERIOD     12
 UBDSV06 SAVING              RCH IN MODEL TEST_TRANS       PACKAGE TEST_TRANS      CONNECTED TO MODEL TEST_TRANS       PACKAGE RCHA             ON UNIT   1016 AT TIME STEP      1, STRESS PERIOD     12
 UBDSV06 SAVING              CHD IN MODEL TEST_TRANS       PACKAGE TEST_TRANS      CONNECTED TO MODEL TEST_TRANS       PACKAGE CHD              ON UNIT   1016 AT TIME STEP      1, STRESS PERIOD     12

 HEAD WILL BE SAVED ON UNIT 1017 AT END OF TIME STEP    1, STRESS PERIOD   12


  VOLUME BUDGET FOR ENTIRE MODEL AT END OF TIME STEP    1, STRESS PERIOD  12
  ---------------------------------------------------------------------------------------------------

     CUMULATIVE VOLUME      L**3       RATES FOR THIS TIME STEP      L**3/T          PACKAGE NAME    
     ------------------                 ------------------------                     ----------------

           IN:                                      IN:
           ---                                      ---
              STO-SS =          16.4737                STO-SS =       3.8343E-02     STORAGE         
              STO-SY =       10352.5108                STO-SY =          27.3429     STORAGE         
                 RCH =       46360.2825                   RCH =         238.3565     RCHA            
                 CHD =          58.2744                   CHD =           0.0000     CHD             

            TOTAL IN =       56787.5414              TOTAL IN =         265.7377

          OUT:                                     OUT:
          ----                                     ----
              STO-SS =           9.6917                STO-SS =       8.2276E-02     STORAGE         
              STO-SY =        6316.3000                STO-SY =          51.2759     STORAGE         
                 RCH =           0.0000                   RCH =           0.0000     RCHA            
                 CHD =       50461.5624                   CHD =         214.3819     CHD             

           TOTAL OUT =       56787.5541             TOTAL OUT =         265.7400

            IN - OUT =      -1.2723E-02              IN - OUT =      -2.2737E-03

 PERCENT DISCREPANCY =          -0.00     PERCENT DISCREPANCY =          -0.00




         TIME SUMMARY AT END OF TIME STEP    1 IN STRESS PERIOD   12
                    SECONDS     MINUTES      HOURS       DAYS        YEARS
                    -----------------------------------------------------------
   TIME STEP LENGTH 2.59200E+05  4320.0      72.000      3.0000     8.21355E-03
 STRESS PERIOD TIME 2.59200E+05  4320.0      72.000      3.0000     8.21355E-03
         TOTAL TIME 2.62656E+07 4.37760E+05  7296.0      304.00     0.83231    
 UBDSV1 SAVING           STO-SS ON UNIT   1016 AT TIME STEP      2, STRESS PERIOD     12
 UBDSV1 SAVING           STO-SY ON UNIT   1016 AT TIME STEP      2, STRESS PERIOD     12
 UBDSV1 SAVING     FLOW-JA-FACE ON UNIT   1016 AT TIME STEP      2, STRESS PERIOD     12
 UBDSV06 SAVING              RCH IN MODEL TEST_TRANS       PACKAGE TEST_TRANS      CONNECTED TO MODEL TEST_TRANS       PACKAGE RCHA             ON UNIT   1016 AT TIME STEP      2, STRESS PERIOD     12
 UBDSV06 SAVING              CHD IN MODEL TEST_TRANS       PACKAGE TEST_TRANS      CONNECTED TO MODEL TEST_TRANS       PACKAGE CHD              ON UNIT   1016 AT TIME STEP      2, STRESS PERIOD     12

 HEAD WILL BE SAVED ON UNIT 1017 AT END OF TIME STEP    2, STRESS PERIOD   12


  VOLUME BUDGET FOR ENTIRE MODEL AT END OF TIME STEP    2, STRESS PERIOD  12
  ---------------------------------------------------------------------------------------------------

     CUMULATIVE VOLUME      L**3       RATES FOR THIS TIME STEP      L**3/T          PACKAGE NAME    
     ------------------                 ------------------------                     ----------------

           IN:                                      IN:
           ---                                      ---
              STO-SS =          16.5287                STO-SS =       1.8346E-02     STORAGE         
              STO-SY =       10391.4123                STO-SY =          12.9672     STORAGE         
                 RCH =       47075.3520                   RCH =         238.3565     RCHA            
                 CHD =          58.2744                   CHD =           0.0000     CHD             

            TOTAL IN =       57541.5674              TOTAL IN =         251.3420

          OUT:                                     OUT:
          ----                                     ----
              STO-SS =           9.9258                STO-SS =       7.8038E-02     STORAGE         
              STO-SY =        6461.8269                STO-SY =          48.5090     STORAGE         
                 RCH =           0.0000                   RCH =           0.0000     RCHA            
                 CHD =       51069.8462                   CHD =         202.7613     CHD             

           TOTAL OUT =       57541.5989             TOTAL OUT =         251.3483

            IN - OUT =      -3.1527E-02              IN - OUT =      -6.2678E-03

 PERCENT DISCREPANCY =          -0.00     PERCENT DISCREPANCY =          -0.00




         TIME SUMMARY AT END OF TIME STEP    2 IN STRESS PERIOD   12
                    SECONDS     MINUTES      HOURS       DAYS        YEARS
                    -----------------------------------------------------------
   TIME STEP LENGTH 2.59200E+05  4320.0      72.000      3.0000     8.21355E-03
 STRESS PERIOD TIME 5.18400E+05  8640.0      144.00      6.0000     1.64271E-02
         TOTAL TIME 2.65248E+07 4.42080E+05  7368.0      307.00     0.84052    
 UBDSV1 SAVING           STO-SS ON UNIT   1016 AT TIME STEP      3, STRESS PERIOD     12
 UBDSV1 SAVING           STO-SY ON UNIT   1016 AT TIME STEP      3, STRESS PERIOD     12
 UBDSV1 SAVING     FLOW-JA-FACE ON UNIT   1016 AT TIME STEP      3, STRESS PERIOD     12
 UBDSV06 SAVING              RCH IN MODEL TEST_TRANS       PACKAGE TEST_TRANS      CONNECTED TO MODEL TEST_TRANS       PACKAGE RCHA             ON UNIT   1016 AT TIME STEP      3, STRESS PERIOD     12
 UBDSV06 SAVING              CHD IN MODEL TEST_TRANS       PACKAGE TEST_TRANS      CONNECTED TO MODEL TEST_TRANS       PACKAGE CHD              ON UNIT   1016 AT TIME STEP      3, STRESS PERIOD     12

 HEAD WILL BE SAVED ON UNIT 1017 AT END OF TIME STEP    3, STRESS PERIOD   12


  VOLUME BUDGET FOR ENTIRE MODEL AT END OF TIME STEP    3, STRESS PERIOD  12
  ---------------------------------------------------------------------------------------------------

     CUMULATIVE VOLUME      L**3       RATES FOR THIS TIME STEP      L**3/T          PACKAGE NAME    
     ------------------                 ------------------------                     ----------------

           IN:                                      IN:
           ---                                      ---
              STO-SS =          16.5576                STO-SS =       9.6270E-03     STORAGE         
              STO-SY =       10411.7169                STO-SY =           6.7682     STORAGE         
                 RCH =       47790.4216                   RCH =         238.3565     RCHA            
                 CHD =          58.2744                   CHD =           0.0000     CHD             

            TOTAL IN =       58276.9705              TOTAL IN =         245.1344

          OUT:                                     OUT:
          ----                                     ----
              STO-SS =          10.1509                STO-SS =       7.5016E-02     STORAGE         
              STO-SY =        6601.5038                STO-SY =          46.5589     STORAGE         
                 RCH =           0.0000                   RCH =           0.0000     RCHA            
                 CHD =       51665.3530                   CHD =         198.5023     CHD             

           TOTAL OUT =       58277.0076             TOTAL OUT =         245.1362

            IN - OUT =      -3.7178E-02              IN - OUT =      -1.8837E-03

 PERCENT DISCREPANCY =          -0.00     PERCENT DISCREPANCY =          -0.00




         TIME SUMMARY AT END OF TIME STEP    3 IN STRESS PERIOD   12
                    SECONDS     MINUTES      HOURS       DAYS        YEARS
                    -----------------------------------------------------------
   TIME STEP LENGTH 2.59200E+05  4320.0      72.000      3.0000     8.21355E-03
 STRESS PERIOD TIME 7.77600E+05  12960.      216.00      9.0000     2.46407E-02
         TOTAL TIME 2.67840E+07 4.46400E+05  7440.0      310.00     0.84873    
 UBDSV1 SAVING           STO-SS ON UNIT   1016 AT TIME STEP      4, STRESS PERIOD     12
 UBDSV1 SAVING           STO-SY ON UNIT   1016 AT TIME STEP      4, STRESS PERIOD     12
 UBDSV1 SAVING     FLOW-JA-FACE ON UNIT   1016 AT TIME STEP      4, STRESS PERIOD     12
 UBDSV06 SAVING              RCH IN MODEL TEST_TRANS       PACKAGE TEST_TRANS      CONNECTED TO MODEL TEST_TRANS       PACKAGE RCHA             ON UNIT   1016 AT TIME STEP      4, STRESS PERIOD     12
 UBDSV06 SAVING              CHD IN MODEL TEST_TRANS       PACKAGE TEST_TRANS      CONNECTED TO MODEL TEST_TRANS       PACKAGE CHD              ON UNIT   1016 AT TIME STEP      4, STRESS PERIOD     12

 HEAD WILL BE SAVED ON UNIT 1017 AT END OF TIME STEP    4, STRESS PERIOD   12


  VOLUME BUDGET FOR ENTIRE MODEL AT END OF TIME STEP    4, STRESS PERIOD  12
  ---------------------------------------------------------------------------------------------------

     CUMULATIVE VOLUME      L**3       RATES FOR THIS TIME STEP      L**3/T          PACKAGE NAME    
     ------------------                 ------------------------                     ----------------

           IN:                                      IN:
           ---                                      ---
              STO-SS =          16.5721                STO-SS =       4.8404E-03     STORAGE         
              STO-SY =       10421.9195                STO-SY =           3.4008     STORAGE         
                 RCH =       48505.4911                   RCH =         238.3565     RCHA            
                 CHD =          58.2744                   CHD =           0.0000     CHD             

            TOTAL IN =       59002.2570              TOTAL IN =         241.7622

          OUT:                                     OUT:
          ----                                     ----
              STO-SS =          10.3690                STO-SS =       7.2696E-02     STORAGE         
              STO-SY =        6736.7244                STO-SY =          45.0735     STORAGE         
                 RCH =           0.0000                   RCH =           0.0000     RCHA            
                 CHD =       52255.2046                   CHD =         196.6172     CHD             

           TOTAL OUT =       59002.2979             TOTAL OUT =         241.7634

            IN - OUT =      -4.0923E-02              IN - OUT =      -1.2484E-03

 PERCENT DISCREPANCY =          -0.00     PERCENT DISCREPANCY =          -0.00




         TIME SUMMARY AT END OF TIME STEP    4 IN STRESS PERIOD   12
                    SECONDS     MINUTES      HOURS       DAYS        YEARS
                    -----------------------------------------------------------
   TIME STEP LENGTH 2.59200E+05  4320.0      72.000      3.0000     8.21355E-03
 STRESS PERIOD TIME 1.03680E+06  17280.      288.00      12.000     3.28542E-02
         TOTAL TIME 2.70432E+07 4.50720E+05  7512.0      313.00     0.85695    
 UBDSV1 SAVING           STO-SS ON UNIT   1016 AT TIME STEP      5, STRESS PERIOD     12
 UBDSV1 SAVING           STO-SY ON UNIT   1016 AT TIME STEP      5, STRESS PERIOD     12
 UBDSV1 SAVING     FLOW-JA-FACE ON UNIT   1016 AT TIME STEP      5, STRESS PERIOD     12
 UBDSV06 SAVING              RCH IN MODEL TEST_TRANS       PACKAGE TEST_TRANS      CONNECTED TO MODEL TEST_TRANS       PACKAGE RCHA             ON UNIT   1016 AT TIME STEP      5, STRESS PERIOD     12
 UBDSV06 SAVING              CHD IN MODEL TEST_TRANS       PACKAGE TEST_TRANS      CONNECTED TO MODEL TEST_TRANS       PACKAGE CHD              ON UNIT   1016 AT TIME STEP      5, STRESS PERIOD     12

 HEAD WILL BE SAVED ON UNIT 1017 AT END OF TIME STEP    5, STRESS PERIOD   12


  VOLUME BUDGET FOR ENTIRE MODEL AT END OF TIME STEP    5, STRESS PERIOD  12
  ---------------------------------------------------------------------------------------------------

     CUMULATIVE VOLUME      L**3       RATES FOR THIS TIME STEP      L**3/T          PACKAGE NAME    
     ------------------                 ------------------------                     ----------------

           IN:                                      IN:
           ---                                      ---
              STO-SS =          16.5786                STO-SS =       2.1485E-03     STORAGE         
              STO-SY =       10426.4590                STO-SY =           1.5132     STORAGE         
                 RCH =       49220.5606                   RCH =         238.3565     RCHA            
                 CHD =          58.2744                   CHD =           0.0000     CHD             

            TOTAL IN =       59721.8725              TOTAL IN =         239.8718

          OUT:                                     OUT:
          ----                                     ----
              STO-SS =          10.5823                STO-SS =       7.1098E-02     STORAGE         
              STO-SY =        6868.9201                STO-SY =          44.0652     STORAGE         
                 RCH =           0.0000                   RCH =           0.0000     RCHA            
                 CHD =       52842.4161                   CHD =         195.7372     CHD             

           TOTAL OUT =       59721.9184             TOTAL OUT =         239.8735

            IN - OUT =      -4.5935E-02              IN - OUT =      -1.6706E-03

 PERCENT DISCREPANCY =          -0.00     PERCENT DISCREPANCY =          -0.00




         TIME SUMMARY AT END OF TIME STEP    5 IN STRESS PERIOD   12
                    SECONDS     MINUTES      HOURS       DAYS        YEARS
                    -----------------------------------------------------------
   TIME STEP LENGTH 2.59200E+05  4320.0      72.000      3.0000     8.21355E-03
 STRESS PERIOD TIME 1.29600E+06  21600.      360.00      15.000     4.10678E-02
         TOTAL TIME 2.73024E+07 4.55040E+05  7584.0      316.00     0.86516    
 UBDSV1 SAVING           STO-SS ON UNIT   1016 AT TIME STEP      6, STRESS PERIOD     12
 UBDSV1 SAVING           STO-SY ON UNIT   1016 AT TIME STEP      6, STRESS PERIOD     12
 UBDSV1 SAVING     FLOW-JA-FACE ON UNIT   1016 AT TIME STEP      6, STRESS PERIOD     12
 UBDSV06 SAVING              RCH IN MODEL TEST_TRANS       PACKAGE TEST_TRANS      CONNECTED TO MODEL TEST_TRANS       PACKAGE RCHA             ON UNIT   1016 AT TIME STEP      6, STRESS PERIOD     12
 UBDSV06 SAVING              CHD IN MODEL TEST_TRANS       PACKAGE TEST_TRANS      CONNECTED TO MODEL TEST_TRANS       PACKAGE CHD              ON UNIT   1016 AT TIME STEP      6, STRESS PERIOD     12

 HEAD WILL BE SAVED ON UNIT 1017 AT END OF TIME STEP    6, STRESS PERIOD   12


  VOLUME BUDGET FOR ENTIRE MODEL AT END OF TIME STEP    6, STRESS PERIOD  12
  ---------------------------------------------------------------------------------------------------

     CUMULATIVE VOLUME      L**3       RATES FOR THIS TIME STEP      L**3/T          PACKAGE NAME    
     ------------------                 ------------------------                     ----------------

           IN:                                      IN:
           ---                                      ---
              STO-SS =          16.5805                STO-SS =       6.5039E-04     STORAGE         
              STO-SY =       10427.8441                STO-SY =           0.4617     STORAGE         
                 RCH =       49935.6302                   RCH =         238.3565     RCHA            
                 CHD =          58.2744                   CHD =           0.0000     CHD             

            TOTAL IN =       60438.3291              TOTAL IN =         238.8189

          OUT:                                     OUT:
          ----                                     ----
              STO-SS =          10.7922                STO-SS =       6.9988E-02     STORAGE         
              STO-SY =        6999.0578                STO-SY =          43.3792     STORAGE         
                 RCH =           0.0000                   RCH =           0.0000     RCHA            
                 CHD =       53428.5310                   CHD =         195.3716     CHD             

           TOTAL OUT =       60438.3810             TOTAL OUT =         238.8209

            IN - OUT =      -5.1922E-02              IN - OUT =      -1.9956E-03

 PERCENT DISCREPANCY =          -0.00     PERCENT DISCREPANCY =          -0.00




         TIME SUMMARY AT END OF TIME STEP    6 IN STRESS PERIOD   12
                    SECONDS     MINUTES      HOURS       DAYS        YEARS
                    -----------------------------------------------------------
   TIME STEP LENGTH 2.59200E+05  4320.0      72.000      3.0000     8.21355E-03
 STRESS PERIOD TIME 1.55520E+06  25920.      432.00      18.000     4.92813E-02
         TOTAL TIME 2.75616E+07 4.59360E+05  7656.0      319.00     0.87337    
 UBDSV1 SAVING           STO-SS ON UNIT   1016 AT TIME STEP      7, STRESS PERIOD     12
 UBDSV1 SAVING           STO-SY ON UNIT   1016 AT TIME STEP      7, STRESS PERIOD     12
 UBDSV1 SAVING     FLOW-JA-FACE ON UNIT   1016 AT TIME STEP      7, STRESS PERIOD     12
 UBDSV06 SAVING              RCH IN MODEL TEST_TRANS       PACKAGE TEST_TRANS      CONNECTED TO MODEL TEST_TRANS       PACKAGE RCHA             ON UNIT   1016 AT TIME STEP      7, STRESS PERIOD     12
 UBDSV06 SAVING              CHD IN MODEL TEST_TRANS       PACKAGE TEST_TRANS      CONNECTED TO MODEL TEST_TRANS       PACKAGE CHD              ON UNIT   1016 AT TIME STEP      7, STRESS PERIOD     12

 HEAD WILL BE SAVED ON UNIT 1017 AT END OF TIME STEP    7, STRESS PERIOD   12


  VOLUME BUDGET FOR ENTIRE MODEL AT END OF TIME STEP    7, STRESS PERIOD  12
  ---------------------------------------------------------------------------------------------------

     CUMULATIVE VOLUME      L**3       RATES FOR THIS TIME STEP      L**3/T          PACKAGE NAME    
     ------------------                 ------------------------                     ----------------

           IN:                                      IN:
           ---                                      ---
              STO-SS =          16.5806                STO-SS =       4.5716E-05     STORAGE         
              STO-SY =       10427.9431                STO-SY =       3.3016E-02     STORAGE         
                 RCH =       50650.6997                   RCH =         238.3565     RCHA            
                 CHD =          58.2744                   CHD =           0.0000     CHD             

            TOTAL IN =       61153.4978              TOTAL IN =         238.3896

          OUT:                                     OUT:
          ----                                     ----
              STO-SS =          11.0003                STO-SS =       6.9367E-02     STORAGE         
              STO-SY =        7128.1231                STO-SY =          43.0218     STORAGE         
                 RCH =           0.0000                   RCH =           0.0000     RCHA            
                 CHD =       54014.4408                   CHD =         195.3033     CHD             

           TOTAL OUT =       61153.5643             TOTAL OUT =         238.3944

            IN - OUT =      -6.6490E-02              IN - OUT =      -4.8562E-03

 PERCENT DISCREPANCY =          -0.00     PERCENT DISCREPANCY =          -0.00




         TIME SUMMARY AT END OF TIME STEP    7 IN STRESS PERIOD   12
                    SECONDS     MINUTES      HOURS       DAYS        YEARS
                    -----------------------------------------------------------
   TIME STEP LENGTH 2.59200E+05  4320.0      72.000      3.0000     8.21355E-03
 STRESS PERIOD TIME 1.81440E+06  30240.      504.00      21.000     5.74949E-02
         TOTAL TIME 2.78208E+07 4.63680E+05  7728.0      322.00     0.88159    
 UBDSV1 SAVING           STO-SS ON UNIT   1016 AT TIME STEP      8, STRESS PERIOD     12
 UBDSV1 SAVING           STO-SY ON UNIT   1016 AT TIME STEP      8, STRESS PERIOD     12
 UBDSV1 SAVING     FLOW-JA-FACE ON UNIT   1016 AT TIME STEP      8, STRESS PERIOD     12
 UBDSV06 SAVING              RCH IN MODEL TEST_TRANS       PACKAGE TEST_TRANS      CONNECTED TO MODEL TEST_TRANS       PACKAGE RCHA             ON UNIT   1016 AT TIME STEP      8, STRESS PERIOD     12
 UBDSV06 SAVING              CHD IN MODEL TEST_TRANS       PACKAGE TEST_TRANS      CONNECTED TO MODEL TEST_TRANS       PACKAGE CHD              ON UNIT   1016 AT TIME STEP      8, STRESS PERIOD     12

 HEAD WILL BE SAVED ON UNIT 1017 AT END OF TIME STEP    8, STRESS PERIOD   12


  VOLUME BUDGET FOR ENTIRE MODEL AT END OF TIME STEP    8, STRESS PERIOD  12
  ---------------------------------------------------------------------------------------------------

     CUMULATIVE VOLUME      L**3       RATES FOR THIS TIME STEP      L**3/T          PACKAGE NAME    
     ------------------                 ------------------------                     ----------------

           IN:                                      IN:
           ---                                      ---
              STO-SS =          16.5806                STO-SS =           0.0000     STORAGE         
              STO-SY =       10427.9431                STO-SY =           0.0000     STORAGE         
                 RCH =       51365.7692                   RCH =         238.3565     RCHA            
                 CHD =          58.2744                   CHD =           0.0000     CHD             

            TOTAL IN =       61868.5673              TOTAL IN =         238.3565

          OUT:                                     OUT:
          ----                                     ----
              STO-SS =          11.2075                STO-SS =       6.9056E-02     STORAGE         
              STO-SY =        7256.7607                STO-SY =          42.8792     STORAGE         
                 RCH =           0.0000                   RCH =           0.0000     RCHA            
                 CHD =       54600.7229                   CHD =         195.4274     CHD             

           TOTAL OUT =       61868.6911             TOTAL OUT =         238.3756

            IN - OUT =          -0.1238              IN - OUT =      -1.9103E-02

 PERCENT DISCREPANCY =          -0.00     PERCENT DISCREPANCY =          -0.01




         TIME SUMMARY AT END OF TIME STEP    8 IN STRESS PERIOD   12
                    SECONDS     MINUTES      HOURS       DAYS        YEARS
                    -----------------------------------------------------------
   TIME STEP LENGTH 2.59200E+05  4320.0      72.000      3.0000     8.21355E-03
 STRESS PERIOD TIME 2.07360E+06  34560.      576.00      24.000     6.57084E-02
         TOTAL TIME 2.80800E+07 4.68000E+05  7800.0      325.00     0.88980    
 UBDSV1 SAVING           STO-SS ON UNIT   1016 AT TIME STEP      9, STRESS PERIOD     12
 UBDSV1 SAVING           STO-SY ON UNIT   1016 AT TIME STEP      9, STRESS PERIOD     12
 UBDSV1 SAVING     FLOW-JA-FACE ON UNIT   1016 AT TIME STEP      9, STRESS PERIOD     12
 UBDSV06 SAVING              RCH IN MODEL TEST_TRANS       PACKAGE TEST_TRANS      CONNECTED TO MODEL TEST_TRANS       PACKAGE RCHA             ON UNIT   1016 AT TIME STEP      9, STRESS PERIOD     12
 UBDSV06 SAVING              CHD IN MODEL TEST_TRANS       PACKAGE TEST_TRANS      CONNECTED TO MODEL TEST_TRANS       PACKAGE CHD              ON UNIT   1016 AT TIME STEP      9, STRESS PERIOD     12

 HEAD WILL BE SAVED ON UNIT 1017 AT END OF TIME STEP    9, STRESS PERIOD   12


  VOLUME BUDGET FOR ENTIRE MODEL AT END OF TIME STEP    9, STRESS PERIOD  12
  ---------------------------------------------------------------------------------------------------

     CUMULATIVE VOLUME      L**3       RATES FOR THIS TIME STEP      L**3/T          PACKAGE NAME    
     ------------------                 ------------------------                     ----------------

           IN:                                      IN:
           ---                                      ---
              STO-SS =          16.5806                STO-SS =           0.0000     STORAGE         
              STO-SY =       10427.9431                STO-SY =           0.0000     STORAGE         
                 RCH =       52080.8387                   RCH =         238.3565     RCHA            
                 CHD =          58.2744                   CHD =           0.0000     CHD             

            TOTAL IN =       62583.6369              TOTAL IN =         238.3565

          OUT:                                     OUT:
          ----                                     ----
              STO-SS =          11.4133                STO-SS =       6.8599E-02     STORAGE         
              STO-SY =        7384.6556                STO-SY =          42.6316     STORAGE         
                 RCH =           0.0000                   RCH =           0.0000     RCHA            
                 CHD =       55187.7641                   CHD =         195.6804     CHD             

           TOTAL OUT =       62583.8329             TOTAL OUT =         238.3806

            IN - OUT =          -0.1961              IN - OUT =      -2.4089E-02

 PERCENT DISCREPANCY =          -0.00     PERCENT DISCREPANCY =          -0.01




         TIME SUMMARY AT END OF TIME STEP    9 IN STRESS PERIOD   12
                    SECONDS     MINUTES      HOURS       DAYS        YEARS
                    -----------------------------------------------------------
   TIME STEP LENGTH 2.59200E+05  4320.0      72.000      3.0000     8.21355E-03
 STRESS PERIOD TIME 2.33280E+06  38880.      648.00      27.000     7.39220E-02
         TOTAL TIME 2.83392E+07 4.72320E+05  7872.0      328.00     0.89802    
 UBDSV1 SAVING           STO-SS ON UNIT   1016 AT TIME STEP     10, STRESS PERIOD     12
 UBDSV1 SAVING           STO-SY ON UNIT   1016 AT TIME STEP     10, STRESS PERIOD     12
 UBDSV1 SAVING     FLOW-JA-FACE ON UNIT   1016 AT TIME STEP     10, STRESS PERIOD     12
 UBDSV06 SAVING              RCH IN MODEL TEST_TRANS       PACKAGE TEST_TRANS      CONNECTED TO MODEL TEST_TRANS       PACKAGE RCHA             ON UNIT   1016 AT TIME STEP     10, STRESS PERIOD     12
 UBDSV06 SAVING              CHD IN MODEL TEST_TRANS       PACKAGE TEST_TRANS      CONNECTED TO MODEL TEST_TRANS       PACKAGE CHD              ON UNIT   1016 AT TIME STEP     10, STRESS PERIOD     12

 HEAD WILL BE SAVED ON UNIT 1017 AT END OF TIME STEP   10, STRESS PERIOD   12


  VOLUME BUDGET FOR ENTIRE MODEL AT END OF TIME STEP   10, STRESS PERIOD  12
  ---------------------------------------------------------------------------------------------------

     CUMULATIVE VOLUME      L**3       RATES FOR THIS TIME STEP      L**3/T          PACKAGE NAME    
     ------------------                 ------------------------                     ----------------

           IN:                                      IN:
           ---                                      ---
              STO-SS =          16.5806                STO-SS =           0.0000     STORAGE         
              STO-SY =       10427.9431                STO-SY =           0.0000     STORAGE         
                 RCH =       52795.9083                   RCH =         238.3565     RCHA            
                 CHD =          58.2744                   CHD =           0.0000     CHD             

            TOTAL IN =       63298.7064              TOTAL IN =         238.3565

          OUT:                                     OUT:
          ----                                     ----
              STO-SS =          11.6174                STO-SS =       6.8018E-02     STORAGE         
              STO-SY =        7511.5416                STO-SY =          42.2954     STORAGE         
                 RCH =           0.0000                   RCH =           0.0000     RCHA            
                 CHD =       55775.8280                   CHD =         196.0213     CHD             

           TOTAL OUT =       63298.9870             TOTAL OUT =         238.3847

            IN - OUT =          -0.2806              IN - OUT =      -2.8167E-02

 PERCENT DISCREPANCY =          -0.00     PERCENT DISCREPANCY =          -0.01




         TIME SUMMARY AT END OF TIME STEP   10 IN STRESS PERIOD   12
                    SECONDS     MINUTES      HOURS       DAYS        YEARS
                    -----------------------------------------------------------
   TIME STEP LENGTH 2.59200E+05  4320.0      72.000      3.0000     8.21355E-03
 STRESS PERIOD TIME 2.59200E+06  43200.      720.00      30.000     8.21355E-02
         TOTAL TIME 2.85984E+07 4.76640E+05  7944.0      331.00     0.90623    

 OUTPUT CONTROL FOR STRESS PERIOD 13 IS REPEATED USING SETTINGS FROM A PREVIOUS STRESS PERIOD.


 STRESS PERIOD 13 IS TRANSIENT


                 RECHARGE =  0.2739730E-02
 UBDSV1 SAVING           STO-SS ON UNIT   1016 AT TIME STEP      1, STRESS PERIOD     13
 UBDSV1 SAVING           STO-SY ON UNIT   1016 AT TIME STEP      1, STRESS PERIOD     13
 UBDSV1 SAVING     FLOW-JA-FACE ON UNIT   1016 AT TIME STEP      1, STRESS PERIOD     13
 UBDSV06 SAVING              RCH IN MODEL TEST_TRANS       PACKAGE TEST_TRANS      CONNECTED TO MODEL TEST_TRANS       PACKAGE RCHA             ON UNIT   1016 AT TIME STEP      1, STRESS PERIOD     13
 UBDSV06 SAVING              CHD IN MODEL TEST_TRANS       PACKAGE TEST_TRANS      CONNECTED TO MODEL TEST_TRANS       PACKAGE CHD              ON UNIT   1016 AT TIME STEP      1, STRESS PERIOD     13

 HEAD WILL BE SAVED ON UNIT 1017 AT END OF TIME STEP    1, STRESS PERIOD   13


  VOLUME BUDGET FOR ENTIRE MODEL AT END OF TIME STEP    1, STRESS PERIOD  13
  ---------------------------------------------------------------------------------------------------

     CUMULATIVE VOLUME      L**3       RATES FOR THIS TIME STEP      L**3/T          PACKAGE NAME    
     ------------------                 ------------------------                     ----------------

           IN:                                      IN:
           ---                                      ---
              STO-SS =          17.0520                STO-SS =           0.1571     STORAGE         
              STO-SY =       10766.0446                STO-SY =         112.7005     STORAGE         
                 RCH =       53510.9778                   RCH =         238.3565     RCHA            
                 CHD =          58.2744                   CHD =           0.0000     CHD             

            TOTAL IN =       64352.3488              TOTAL IN =         351.2141

          OUT:                                     OUT:
          ----                                     ----
              STO-SS =          11.7926                STO-SS =       5.8423E-02     STORAGE         
              STO-SY =        7619.4395                STO-SY =          35.9659     STORAGE         
                 RCH =           0.0000                   RCH =           0.0000     RCHA            
                 CHD =       56721.3944                   CHD =         315.1888     CHD             

           TOTAL OUT =       64352.6265             TOTAL OUT =         351.2132

            IN - OUT =          -0.2776              IN - OUT =       9.7392E-04

 PERCENT DISCREPANCY =          -0.00     PERCENT DISCREPANCY =           0.00




         TIME SUMMARY AT END OF TIME STEP    1 IN STRESS PERIOD   13
                    SECONDS     MINUTES      HOURS       DAYS        YEARS
                    -----------------------------------------------------------
   TIME STEP LENGTH 2.59200E+05  4320.0      72.000      3.0000     8.21355E-03
 STRESS PERIOD TIME 2.59200E+05  4320.0      72.000      3.0000     8.21355E-03
         TOTAL TIME 2.88576E+07 4.80960E+05  8016.0      334.00     0.91444    
 UBDSV1 SAVING           STO-SS ON UNIT   1016 AT TIME STEP      2, STRESS PERIOD     13
 UBDSV1 SAVING           STO-SY ON UNIT   1016 AT TIME STEP      2, STRESS PERIOD     13
 UBDSV1 SAVING     FLOW-JA-FACE ON UNIT   1016 AT TIME STEP      2, STRESS PERIOD     13
 UBDSV06 SAVING              RCH IN MODEL TEST_TRANS       PACKAGE TEST_TRANS      CONNECTED TO MODEL TEST_TRANS       PACKAGE RCHA             ON UNIT   1016 AT TIME STEP      2, STRESS PERIOD     13
 UBDSV06 SAVING              CHD IN MODEL TEST_TRANS       PACKAGE TEST_TRANS      CONNECTED TO MODEL TEST_TRANS       PACKAGE CHD              ON UNIT   1016 AT TIME STEP      2, STRESS PERIOD     13

 HEAD WILL BE SAVED ON UNIT 1017 AT END OF TIME STEP    2, STRESS PERIOD   13


  VOLUME BUDGET FOR ENTIRE MODEL AT END OF TIME STEP    2, STRESS PERIOD  13
  ---------------------------------------------------------------------------------------------------

     CUMULATIVE VOLUME      L**3       RATES FOR THIS TIME STEP      L**3/T          PACKAGE NAME    
     ------------------                 ------------------------                     ----------------

           IN:                                      IN:
           ---                                      ---
              STO-SS =          17.3445                STO-SS =       9.7480E-02     STORAGE         
              STO-SY =       10973.5459                STO-SY =          69.1671     STORAGE         
                 RCH =       54226.0473                   RCH =         238.3565     RCHA            
                 CHD =          58.2744                   CHD =           0.0000     CHD             

            TOTAL IN =       65275.2120              TOTAL IN =         307.6211

          OUT:                                     OUT:
          ----                                     ----
              STO-SS =          11.9531                STO-SS =       5.3507E-02     STORAGE         
              STO-SY =        7717.9639                STO-SY =          32.8415     STORAGE         
                 RCH =           0.0000                   RCH =           0.0000     RCHA            
                 CHD =       57545.6018                   CHD =         274.7358     CHD             

           TOTAL OUT =       65275.5189             TOTAL OUT =         307.6308

            IN - OUT =          -0.3068              IN - OUT =      -9.7299E-03

 PERCENT DISCREPANCY =          -0.00     PERCENT DISCREPANCY =          -0.00




         TIME SUMMARY AT END OF TIME STEP    2 IN STRESS PERIOD   13
                    SECONDS     MINUTES      HOURS       DAYS        YEARS
                    -----------------------------------------------------------
   TIME STEP LENGTH 2.59200E+05  4320.0      72.000      3.0000     8.21355E-03
 STRESS PERIOD TIME 5.18400E+05  8640.0      144.00      6.0000     1.64271E-02
         TOTAL TIME 2.91168E+07 4.85280E+05  8088.0      337.00     0.92266    
 UBDSV1 SAVING           STO-SS ON UNIT   1016 AT TIME STEP      3, STRESS PERIOD     13
 UBDSV1 SAVING           STO-SY ON UNIT   1016 AT TIME STEP      3, STRESS PERIOD     13
 UBDSV1 SAVING     FLOW-JA-FACE ON UNIT   1016 AT TIME STEP      3, STRESS PERIOD     13
 UBDSV06 SAVING              RCH IN MODEL TEST_TRANS       PACKAGE TEST_TRANS      CONNECTED TO MODEL TEST_TRANS       PACKAGE RCHA             ON UNIT   1016 AT TIME STEP      3, STRESS PERIOD     13
 UBDSV06 SAVING              CHD IN MODEL TEST_TRANS       PACKAGE TEST_TRANS      CONNECTED TO MODEL TEST_TRANS       PACKAGE CHD              ON UNIT   1016 AT TIME STEP      3, STRESS PERIOD     13

 HEAD WILL BE SAVED ON UNIT 1017 AT END OF TIME STEP    3, STRESS PERIOD   13


  VOLUME BUDGET FOR ENTIRE MODEL AT END OF TIME STEP    3, STRESS PERIOD  13
  ---------------------------------------------------------------------------------------------------

     CUMULATIVE VOLUME      L**3       RATES FOR THIS TIME STEP      L**3/T          PACKAGE NAME    
     ------------------                 ------------------------                     ----------------

           IN:                                      IN:
           ---                                      ---
              STO-SS =          17.5519                STO-SS =       6.9121E-02     STORAGE         
              STO-SY =       11119.1583                STO-SY =          48.5375     STORAGE         
                 RCH =       54941.1169                   RCH =         238.3565     RCHA            
                 CHD =          58.2744                   CHD =           0.0000     CHD             

            TOTAL IN =       66136.1014              TOTAL IN =         286.9631

          OUT:                                     OUT:
          ----                                     ----
              STO-SS =          12.1012                STO-SS =       4.9350E-02     STORAGE         
              STO-SY =        7808.6367                STO-SY =          30.2243     STORAGE         
                 RCH =           0.0000                   RCH =           0.0000     RCHA            
                 CHD =       58315.6872                   CHD =         256.6951     CHD             

           TOTAL OUT =       66136.4251             TOTAL OUT =         286.9688

            IN - OUT =          -0.3238              IN - OUT =      -5.6543E-03

 PERCENT DISCREPANCY =          -0.00     PERCENT DISCREPANCY =          -0.00




         TIME SUMMARY AT END OF TIME STEP    3 IN STRESS PERIOD   13
                    SECONDS     MINUTES      HOURS       DAYS        YEARS
                    -----------------------------------------------------------
   TIME STEP LENGTH 2.59200E+05  4320.0      72.000      3.0000     8.21355E-03
 STRESS PERIOD TIME 7.77600E+05  12960.      216.00      9.0000     2.46407E-02
         TOTAL TIME 2.93760E+07 4.89600E+05  8160.0      340.00     0.93087    
 UBDSV1 SAVING           STO-SS ON UNIT   1016 AT TIME STEP      4, STRESS PERIOD     13
 UBDSV1 SAVING           STO-SY ON UNIT   1016 AT TIME STEP      4, STRESS PERIOD     13
 UBDSV1 SAVING     FLOW-JA-FACE ON UNIT   1016 AT TIME STEP      4, STRESS PERIOD     13
 UBDSV06 SAVING              RCH IN MODEL TEST_TRANS       PACKAGE TEST_TRANS      CONNECTED TO MODEL TEST_TRANS       PACKAGE RCHA             ON UNIT   1016 AT TIME STEP      4, STRESS PERIOD     13
 UBDSV06 SAVING              CHD IN MODEL TEST_TRANS       PACKAGE TEST_TRANS      CONNECTED TO MODEL TEST_TRANS       PACKAGE CHD              ON UNIT   1016 AT TIME STEP      4, STRESS PERIOD     13

 HEAD WILL BE SAVED ON UNIT 1017 AT END OF TIME STEP    4, STRESS PERIOD   13


  VOLUME BUDGET FOR ENTIRE MODEL AT END OF TIME STEP    4, STRESS PERIOD  13
  ---------------------------------------------------------------------------------------------------

     CUMULATIVE VOLUME      L**3       RATES FOR THIS TIME STEP      L**3/T          PACKAGE NAME    
     ------------------                 ------------------------                     ----------------

           IN:                                      IN:
           ---                                      ---
              STO-SS =          17.7085                STO-SS =       5.2205E-02     STORAGE         
              STO-SY =       11228.2949                STO-SY =          36.3789     STORAGE         
                 RCH =       55656.1864                   RCH =         238.3565     RCHA            
                 CHD =          58.2744                   CHD =           0.0000     CHD             

            TOTAL IN =       66960.4642              TOTAL IN =         274.7876

          OUT:                                     OUT:
          ----                                     ----
              STO-SS =          12.2384                STO-SS =       4.5739E-02     STORAGE         
              STO-SY =        7892.5332                STO-SY =          27.9655     STORAGE         
                 RCH =           0.0000                   RCH =           0.0000     RCHA            
                 CHD =       59056.0251                   CHD =         246.7793     CHD             

           TOTAL OUT =       66960.7966             TOTAL OUT =         274.7905

            IN - OUT =          -0.3325              IN - OUT =      -2.8927E-03

 PERCENT DISCREPANCY =          -0.00     PERCENT DISCREPANCY =          -0.00




         TIME SUMMARY AT END OF TIME STEP    4 IN STRESS PERIOD   13
                    SECONDS     MINUTES      HOURS       DAYS        YEARS
                    -----------------------------------------------------------
   TIME STEP LENGTH 2.59200E+05  4320.0      72.000      3.0000     8.21355E-03
 STRESS PERIOD TIME 1.03680E+06  17280.      288.00      12.000     3.28542E-02
         TOTAL TIME 2.96352E+07 4.93920E+05  8232.0      343.00     0.93908    
 UBDSV1 SAVING           STO-SS ON UNIT   1016 AT TIME STEP      5, STRESS PERIOD     13
 UBDSV1 SAVING           STO-SY ON UNIT   1016 AT TIME STEP      5, STRESS PERIOD     13
 UBDSV1 SAVING     FLOW-JA-FACE ON UNIT   1016 AT TIME STEP      5, STRESS PERIOD     13
 UBDSV06 SAVING              RCH IN MODEL TEST_TRANS       PACKAGE TEST_TRANS      CONNECTED TO MODEL TEST_TRANS       PACKAGE RCHA             ON UNIT   1016 AT TIME STEP      5, STRESS PERIOD     13
 UBDSV06 SAVING              CHD IN MODEL TEST_TRANS       PACKAGE TEST_TRANS      CONNECTED TO MODEL TEST_TRANS       PACKAGE CHD              ON UNIT   1016 AT TIME STEP      5, STRESS PERIOD     13

 HEAD WILL BE SAVED ON UNIT 1017 AT END OF TIME STEP    5, STRESS PERIOD   13


  VOLUME BUDGET FOR ENTIRE MODEL AT END OF TIME STEP    5, STRESS PERIOD  13
  ---------------------------------------------------------------------------------------------------

     CUMULATIVE VOLUME      L**3       RATES FOR THIS TIME STEP      L**3/T          PACKAGE NAME    
     ------------------                 ------------------------                     ----------------

           IN:                                      IN:
           ---                                      ---
              STO-SS =          17.8303                STO-SS =       4.0620E-02     STORAGE         
              STO-SY =       11312.7606                STO-SY =          28.1552     STORAGE         
                 RCH =       56371.2559                   RCH =         238.3565     RCHA            
                 CHD =          58.2744                   CHD =           0.0000     CHD             

            TOTAL IN =       67760.1212              TOTAL IN =         266.5523

          OUT:                                     OUT:
          ----                                     ----
              STO-SS =          12.3659                STO-SS =       4.2495E-02     STORAGE         
              STO-SY =        7970.3673                STO-SY =          25.9447     STORAGE         
                 RCH =           0.0000                   RCH =           0.0000     RCHA            
                 CHD =       59777.7256                   CHD =         240.5669     CHD             

           TOTAL OUT =       67760.4588             TOTAL OUT =         266.5540

            IN - OUT =          -0.3376              IN - OUT =      -1.7074E-03

 PERCENT DISCREPANCY =          -0.00     PERCENT DISCREPANCY =          -0.00




         TIME SUMMARY AT END OF TIME STEP    5 IN STRESS PERIOD   13
                    SECONDS     MINUTES      HOURS       DAYS        YEARS
                    -----------------------------------------------------------
   TIME STEP LENGTH 2.59200E+05  4320.0      72.000      3.0000     8.21355E-03
 STRESS PERIOD TIME 1.29600E+06  21600.      360.00      15.000     4.10678E-02
         TOTAL TIME 2.98944E+07 4.98240E+05  8304.0      346.00     0.94730    
 UBDSV1 SAVING           STO-SS ON UNIT   1016 AT TIME STEP      6, STRESS PERIOD     13
 UBDSV1 SAVING           STO-SY ON UNIT   1016 AT TIME STEP      6, STRESS PERIOD     13
 UBDSV1 SAVING     FLOW-JA-FACE ON UNIT   1016 AT TIME STEP      6, STRESS PERIOD     13
 UBDSV06 SAVING              RCH IN MODEL TEST_TRANS       PACKAGE TEST_TRANS      CONNECTED TO MODEL TEST_TRANS       PACKAGE RCHA             ON UNIT   1016 AT TIME STEP      6, STRESS PERIOD     13
 UBDSV06 SAVING              CHD IN MODEL TEST_TRANS       PACKAGE TEST_TRANS      CONNECTED TO MODEL TEST_TRANS       PACKAGE CHD              ON UNIT   1016 AT TIME STEP      6, STRESS PERIOD     13

 HEAD WILL BE SAVED ON UNIT 1017 AT END OF TIME STEP    6, STRESS PERIOD   13


  VOLUME BUDGET FOR ENTIRE MODEL AT END OF TIME STEP    6, STRESS PERIOD  13
  ---------------------------------------------------------------------------------------------------

     CUMULATIVE VOLUME      L**3       RATES FOR THIS TIME STEP      L**3/T          PACKAGE NAME    
     ------------------                 ------------------------                     ----------------

           IN:                                      IN:
           ---                                      ---
              STO-SS =          17.9268                STO-SS =       3.2173E-02     STORAGE         
              STO-SY =       11379.4035                STO-SY =          22.2143     STORAGE         
                 RCH =       57086.3255                   RCH =         238.3565     RCHA            
                 CHD =          58.2744                   CHD =           0.0000     CHD             

            TOTAL IN =       68541.9301              TOTAL IN =         260.6030

          OUT:                                     OUT:
          ----                                     ----
              STO-SS =          12.4851                STO-SS =       3.9719E-02     STORAGE         
              STO-SY =        8043.0379                STO-SY =          24.2236     STORAGE         
                 RCH =           0.0000                   RCH =           0.0000     RCHA            
                 CHD =       60486.7480                   CHD =         236.3408     CHD             

           TOTAL OUT =       68542.2710             TOTAL OUT =         260.6041

            IN - OUT =          -0.3409              IN - OUT =      -1.0887E-03

 PERCENT DISCREPANCY =          -0.00     PERCENT DISCREPANCY =          -0.00




         TIME SUMMARY AT END OF TIME STEP    6 IN STRESS PERIOD   13
                    SECONDS     MINUTES      HOURS       DAYS        YEARS
                    -----------------------------------------------------------
   TIME STEP LENGTH 2.59200E+05  4320.0      72.000      3.0000     8.21355E-03
 STRESS PERIOD TIME 1.55520E+06  25920.      432.00      18.000     4.92813E-02
         TOTAL TIME 3.01536E+07 5.02560E+05  8376.0      349.00     0.95551    
 UBDSV1 SAVING           STO-SS ON UNIT   1016 AT TIME STEP      7, STRESS PERIOD     13
 UBDSV1 SAVING           STO-SY ON UNIT   1016 AT TIME STEP      7, STRESS PERIOD     13
 UBDSV1 SAVING     FLOW-JA-FACE ON UNIT   1016 AT TIME STEP      7, STRESS PERIOD     13
 UBDSV06 SAVING              RCH IN MODEL TEST_TRANS       PACKAGE TEST_TRANS      CONNECTED TO MODEL TEST_TRANS       PACKAGE RCHA             ON UNIT   1016 AT TIME STEP      7, STRESS PERIOD     13
 UBDSV06 SAVING              CHD IN MODEL TEST_TRANS       PACKAGE TEST_TRANS      CONNECTED TO MODEL TEST_TRANS       PACKAGE CHD              ON UNIT   1016 AT TIME STEP      7, STRESS PERIOD     13

 HEAD WILL BE SAVED ON UNIT 1017 AT END OF TIME STEP    7, STRESS PERIOD   13


  VOLUME BUDGET FOR ENTIRE MODEL AT END OF TIME STEP    7, STRESS PERIOD  13
  ---------------------------------------------------------------------------------------------------

     CUMULATIVE VOLUME      L**3       RATES FOR THIS TIME STEP      L**3/T          PACKAGE NAME    
     ------------------                 ------------------------                     ----------------

           IN:                                      IN:
           ---                                      ---
              STO-SS =          18.0038                STO-SS =       2.5658E-02     STORAGE         
              STO-SY =       11432.4147                STO-SY =          17.6704     STORAGE         
                 RCH =       57801.3950                   RCH =         238.3565     RCHA            
                 CHD =          58.2744                   CHD =           0.0000     CHD             

            TOTAL IN =       69310.0878              TOTAL IN =         256.0526

          OUT:                                     OUT:
          ----                                     ----
              STO-SS =          12.5968                STO-SS =       3.7261E-02     STORAGE         
              STO-SY =        8111.1520                STO-SY =          22.7047     STORAGE         
                 RCH =           0.0000                   RCH =           0.0000     RCHA            
                 CHD =       61186.6606                   CHD =         233.3042     CHD             

           TOTAL OUT =       69310.4095             TOTAL OUT =         256.0462

            IN - OUT =          -0.3216              IN - OUT =       6.4093E-03

 PERCENT DISCREPANCY =          -0.00     PERCENT DISCREPANCY =           0.00




         TIME SUMMARY AT END OF TIME STEP    7 IN STRESS PERIOD   13
                    SECONDS     MINUTES      HOURS       DAYS        YEARS
                    -----------------------------------------------------------
   TIME STEP LENGTH 2.59200E+05  4320.0      72.000      3.0000     8.21355E-03
 STRESS PERIOD TIME 1.81440E+06  30240.      504.00      21.000     5.74949E-02
         TOTAL TIME 3.04128E+07 5.06880E+05  8448.0      352.00     0.96372    
 UBDSV1 SAVING           STO-SS ON UNIT   1016 AT TIME STEP      8, STRESS PERIOD     13
 UBDSV1 SAVING           STO-SY ON UNIT   1016 AT TIME STEP      8, STRESS PERIOD     13
 UBDSV1 SAVING     FLOW-JA-FACE ON UNIT   1016 AT TIME STEP      8, STRESS PERIOD     13
 UBDSV06 SAVING              RCH IN MODEL TEST_TRANS       PACKAGE TEST_TRANS      CONNECTED TO MODEL TEST_TRANS       PACKAGE RCHA             ON UNIT   1016 AT TIME STEP      8, STRESS PERIOD     13
 UBDSV06 SAVING              CHD IN MODEL TEST_TRANS       PACKAGE TEST_TRANS      CONNECTED TO MODEL TEST_TRANS       PACKAGE CHD              ON UNIT   1016 AT TIME STEP      8, STRESS PERIOD     13

 HEAD WILL BE SAVED ON UNIT 1017 AT END OF TIME STEP    8, STRESS PERIOD   13


  VOLUME BUDGET FOR ENTIRE MODEL AT END OF TIME STEP    8, STRESS PERIOD  13
  ---------------------------------------------------------------------------------------------------

     CUMULATIVE VOLUME      L**3       RATES FOR THIS TIME STEP      L**3/T          PACKAGE NAME    
     ------------------                 ------------------------                     ----------------

           IN:                                      IN:
           ---                                      ---
              STO-SS =          18.0652                STO-SS =       2.0473E-02     STORAGE         
              STO-SY =       11474.6464                STO-SY =          14.0772     STORAGE         
                 RCH =       58516.4645                   RCH =         238.3565     RCHA            
                 CHD =          58.2744                   CHD =           0.0000     CHD             

            TOTAL IN =       70067.4505              TOTAL IN =         252.4542

          OUT:                                     OUT:
          ----                                     ----
              STO-SS =          12.7021                STO-SS =       3.5086E-02     STORAGE         
              STO-SY =        8175.2438                STO-SY =          21.3639     STORAGE         
                 RCH =           0.0000                   RCH =           0.0000     RCHA            
                 CHD =       61879.8108                   CHD =         231.0501     CHD             

           TOTAL OUT =       70067.7567             TOTAL OUT =         252.4491

            IN - OUT =          -0.3062              IN - OUT =       5.1358E-03

 PERCENT DISCREPANCY =          -0.00     PERCENT DISCREPANCY =           0.00




         TIME SUMMARY AT END OF TIME STEP    8 IN STRESS PERIOD   13
                    SECONDS     MINUTES      HOURS       DAYS        YEARS
                    -----------------------------------------------------------
   TIME STEP LENGTH 2.59200E+05  4320.0      72.000      3.0000     8.21355E-03
 STRESS PERIOD TIME 2.07360E+06  34560.      576.00      24.000     6.57084E-02
         TOTAL TIME 3.06720E+07 5.11200E+05  8520.0      355.00     0.97194    
 UBDSV1 SAVING           STO-SS ON UNIT   1016 AT TIME STEP      9, STRESS PERIOD     13
 UBDSV1 SAVING           STO-SY ON UNIT   1016 AT TIME STEP      9, STRESS PERIOD     13
 UBDSV1 SAVING     FLOW-JA-FACE ON UNIT   1016 AT TIME STEP      9, STRESS PERIOD     13
 UBDSV06 SAVING              RCH IN MODEL TEST_TRANS       PACKAGE TEST_TRANS      CONNECTED TO MODEL TEST_TRANS       PACKAGE RCHA             ON UNIT   1016 AT TIME STEP      9, STRESS PERIOD     13
 UBDSV06 SAVING              CHD IN MODEL TEST_TRANS       PACKAGE TEST_TRANS      CONNECTED TO MODEL TEST_TRANS       PACKAGE CHD              ON UNIT   1016 AT TIME STEP      9, STRESS PERIOD     13

 HEAD WILL BE SAVED ON UNIT 1017 AT END OF TIME STEP    9, STRESS PERIOD   13


  VOLUME BUDGET FOR ENTIRE MODEL AT END OF TIME STEP    9, STRESS PERIOD  13
  ---------------------------------------------------------------------------------------------------

     CUMULATIVE VOLUME      L**3       RATES FOR THIS TIME STEP      L**3/T          PACKAGE NAME    
     ------------------                 ------------------------                     ----------------

           IN:                                      IN:
           ---                                      ---
              STO-SS =          18.1141                STO-SS =       1.6284E-02     STORAGE         
              STO-SY =       11508.2153                STO-SY =          11.1896     STORAGE         
                 RCH =       59231.5340                   RCH =         238.3565     RCHA            
                 CHD =          58.2744                   CHD =           0.0000     CHD             

            TOTAL IN =       70816.1378              TOTAL IN =         249.5624

          OUT:                                     OUT:
          ----                                     ----
              STO-SS =          12.8016                STO-SS =       3.3174E-02     STORAGE         
              STO-SY =        8235.8099                STO-SY =          20.1887     STORAGE         
                 RCH =           0.0000                   RCH =           0.0000     RCHA            
                 CHD =       62567.8136                   CHD =         229.3343     CHD             

           TOTAL OUT =       70816.4251             TOTAL OUT =         249.5561

            IN - OUT =          -0.2874              IN - OUT =       6.2901E-03

 PERCENT DISCREPANCY =          -0.00     PERCENT DISCREPANCY =           0.00




         TIME SUMMARY AT END OF TIME STEP    9 IN STRESS PERIOD   13
                    SECONDS     MINUTES      HOURS       DAYS        YEARS
                    -----------------------------------------------------------
   TIME STEP LENGTH 2.59200E+05  4320.0      72.000      3.0000     8.21355E-03
 STRESS PERIOD TIME 2.33280E+06  38880.      648.00      27.000     7.39220E-02
         TOTAL TIME 3.09312E+07 5.15520E+05  8592.0      358.00     0.98015    
 UBDSV1 SAVING           STO-SS ON UNIT   1016 AT TIME STEP     10, STRESS PERIOD     13
 UBDSV1 SAVING           STO-SY ON UNIT   1016 AT TIME STEP     10, STRESS PERIOD     13
 UBDSV1 SAVING     FLOW-JA-FACE ON UNIT   1016 AT TIME STEP     10, STRESS PERIOD     13
 UBDSV06 SAVING              RCH IN MODEL TEST_TRANS       PACKAGE TEST_TRANS      CONNECTED TO MODEL TEST_TRANS       PACKAGE RCHA             ON UNIT   1016 AT TIME STEP     10, STRESS PERIOD     13
 UBDSV06 SAVING              CHD IN MODEL TEST_TRANS       PACKAGE TEST_TRANS      CONNECTED TO MODEL TEST_TRANS       PACKAGE CHD              ON UNIT   1016 AT TIME STEP     10, STRESS PERIOD     13

 HEAD WILL BE SAVED ON UNIT 1017 AT END OF TIME STEP   10, STRESS PERIOD   13


  VOLUME BUDGET FOR ENTIRE MODEL AT END OF TIME STEP   10, STRESS PERIOD  13
  ---------------------------------------------------------------------------------------------------

     CUMULATIVE VOLUME      L**3       RATES FOR THIS TIME STEP      L**3/T          PACKAGE NAME    
     ------------------                 ------------------------                     ----------------

           IN:                                      IN:
           ---                                      ---
              STO-SS =          18.1527                STO-SS =       1.2856E-02     STORAGE         
              STO-SY =       11534.7191                STO-SY =           8.8346     STORAGE         
                 RCH =       59946.6036                   RCH =         238.3565     RCHA            
                 CHD =          58.2744                   CHD =           0.0000     CHD             

            TOTAL IN =       71557.7496              TOTAL IN =         247.2040

          OUT:                                     OUT:
          ----                                     ----
              STO-SS =          12.8961                STO-SS =       3.1496E-02     STORAGE         
              STO-SY =        8293.2891                STO-SY =          19.1597     STORAGE         
                 RCH =           0.0000                   RCH =           0.0000     RCHA            
                 CHD =       63251.8373                   CHD =         228.0079     CHD             

           TOTAL OUT =       71558.0225             TOTAL OUT =         247.1991

            IN - OUT =          -0.2728              IN - OUT =       4.8417E-03

 PERCENT DISCREPANCY =          -0.00     PERCENT DISCREPANCY =           0.00




         TIME SUMMARY AT END OF TIME STEP   10 IN STRESS PERIOD   13
                    SECONDS     MINUTES      HOURS       DAYS        YEARS
                    -----------------------------------------------------------
   TIME STEP LENGTH 2.59200E+05  4320.0      72.000      3.0000     8.21355E-03
 STRESS PERIOD TIME 2.59200E+06  43200.      720.00      30.000     8.21355E-02
         TOTAL TIME 3.11904E+07 5.19840E+05  8664.0      361.00     0.98836    

 OUTPUT CONTROL FOR STRESS PERIOD 14 IS REPEATED USING SETTINGS FROM A PREVIOUS STRESS PERIOD.


 STRESS PERIOD 14 IS TRANSIENT


                 RECHARGE =  0.3287670E-02
 UBDSV1 SAVING           STO-SS ON UNIT   1016 AT TIME STEP      1, STRESS PERIOD     14
 UBDSV1 SAVING           STO-SY ON UNIT   1016 AT TIME STEP      1, STRESS PERIOD     14
 UBDSV1 SAVING     FLOW-JA-FACE ON UNIT   1016 AT TIME STEP      1, STRESS PERIOD     14
 UBDSV06 SAVING              RCH IN MODEL TEST_TRANS       PACKAGE TEST_TRANS      CONNECTED TO MODEL TEST_TRANS       PACKAGE RCHA             ON UNIT   1016 AT TIME STEP      1, STRESS PERIOD     14
 UBDSV06 SAVING              CHD IN MODEL TEST_TRANS       PACKAGE TEST_TRANS      CONNECTED TO MODEL TEST_TRANS       PACKAGE CHD              ON UNIT   1016 AT TIME STEP      1, STRESS PERIOD     14

 HEAD WILL BE SAVED ON UNIT 1017 AT END OF TIME STEP    1, STRESS PERIOD   14


  VOLUME BUDGET FOR ENTIRE MODEL AT END OF TIME STEP    1, STRESS PERIOD  14
  ---------------------------------------------------------------------------------------------------

     CUMULATIVE VOLUME      L**3       RATES FOR THIS TIME STEP      L**3/T          PACKAGE NAME    
     ------------------                 ------------------------                     ----------------

           IN:                                      IN:
           ---                                      ---
              STO-SS =          18.1527                STO-SS =           0.0000     STORAGE         
              STO-SY =       11534.7191                STO-SY =           0.0000     STORAGE         
                 RCH =       60804.6854                   RCH =         286.0273     RCHA            
                 CHD =          58.2744                   CHD =           0.0000     CHD             

            TOTAL IN =       72415.8315              TOTAL IN =         286.0273

          OUT:                                     OUT:
          ----                                     ----
              STO-SS =          13.2338                STO-SS =           0.1126     STORAGE         
              STO-SY =        8509.5580                STO-SY =          72.0896     STORAGE         
                 RCH =           0.0000                   RCH =           0.0000     RCHA            
                 CHD =       63893.3028                   CHD =         213.8218     CHD             

           TOTAL OUT =       72416.0945             TOTAL OUT =         286.0240

            IN - OUT =          -0.2630              IN - OUT =       3.2750E-03

 PERCENT DISCREPANCY =          -0.00     PERCENT DISCREPANCY =           0.00




         TIME SUMMARY AT END OF TIME STEP    1 IN STRESS PERIOD   14
                    SECONDS     MINUTES      HOURS       DAYS        YEARS
                    -----------------------------------------------------------
   TIME STEP LENGTH 2.59200E+05  4320.0      72.000      3.0000     8.21355E-03
 STRESS PERIOD TIME 2.59200E+05  4320.0      72.000      3.0000     8.21355E-03
         TOTAL TIME 3.14496E+07 5.24160E+05  8736.0      364.00     0.99658    
 UBDSV1 SAVING           STO-SS ON UNIT   1016 AT TIME STEP      2, STRESS PERIOD     14
 UBDSV1 SAVING           STO-SY ON UNIT   1016 AT TIME STEP      2, STRESS PERIOD     14
 UBDSV1 SAVING     FLOW-JA-FACE ON UNIT   1016 AT TIME STEP      2, STRESS PERIOD     14
 UBDSV06 SAVING              RCH IN MODEL TEST_TRANS       PACKAGE TEST_TRANS      CONNECTED TO MODEL TEST_TRANS       PACKAGE RCHA             ON UNIT   1016 AT TIME STEP      2, STRESS PERIOD     14
 UBDSV06 SAVING              CHD IN MODEL TEST_TRANS       PACKAGE TEST_TRANS      CONNECTED TO MODEL TEST_TRANS       PACKAGE CHD              ON UNIT   1016 AT TIME STEP      2, STRESS PERIOD     14

 HEAD WILL BE SAVED ON UNIT 1017 AT END OF TIME STEP    2, STRESS PERIOD   14


  VOLUME BUDGET FOR ENTIRE MODEL AT END OF TIME STEP    2, STRESS PERIOD  14
  ---------------------------------------------------------------------------------------------------

     CUMULATIVE VOLUME      L**3       RATES FOR THIS TIME STEP      L**3/T          PACKAGE NAME    
     ------------------                 ------------------------                     ----------------

           IN:                                      IN:
           ---                                      ---
              STO-SS =          18.1527                STO-SS =           0.0000     STORAGE         
              STO-SY =       11534.7191                STO-SY =           0.0000     STORAGE         
                 RCH =       61662.7673                   RCH =         286.0273     RCHA            
                 CHD =          58.2744                   CHD =           0.0000     CHD             

            TOTAL IN =       73273.9134              TOTAL IN =         286.0273

          OUT:                                     OUT:
          ----                                     ----
              STO-SS =          13.5466                STO-SS =           0.1043     STORAGE         
              STO-SY =        8707.1908                STO-SY =          65.8776     STORAGE         
                 RCH =           0.0000                   RCH =           0.0000     RCHA            
                 CHD =       64553.4410                   CHD =         220.0461     CHD             

           TOTAL OUT =       73274.1784             TOTAL OUT =         286.0280

            IN - OUT =          -0.2650              IN - OUT =      -6.6669E-04

 PERCENT DISCREPANCY =          -0.00     PERCENT DISCREPANCY =          -0.00




         TIME SUMMARY AT END OF TIME STEP    2 IN STRESS PERIOD   14
                    SECONDS     MINUTES      HOURS       DAYS        YEARS
                    -----------------------------------------------------------
   TIME STEP LENGTH 2.59200E+05  4320.0      72.000      3.0000     8.21355E-03
 STRESS PERIOD TIME 5.18400E+05  8640.0      144.00      6.0000     1.64271E-02
         TOTAL TIME 3.17088E+07 5.28480E+05  8808.0      367.00      1.0048    
 UBDSV1 SAVING           STO-SS ON UNIT   1016 AT TIME STEP      3, STRESS PERIOD     14
 UBDSV1 SAVING           STO-SY ON UNIT   1016 AT TIME STEP      3, STRESS PERIOD     14
 UBDSV1 SAVING     FLOW-JA-FACE ON UNIT   1016 AT TIME STEP      3, STRESS PERIOD     14
 UBDSV06 SAVING              RCH IN MODEL TEST_TRANS       PACKAGE TEST_TRANS      CONNECTED TO MODEL TEST_TRANS       PACKAGE RCHA             ON UNIT   1016 AT TIME STEP      3, STRESS PERIOD     14
 UBDSV06 SAVING              CHD IN MODEL TEST_TRANS       PACKAGE TEST_TRANS      CONNECTED TO MODEL TEST_TRANS       PACKAGE CHD              ON UNIT   1016 AT TIME STEP      3, STRESS PERIOD     14

 HEAD WILL BE SAVED ON UNIT 1017 AT END OF TIME STEP    3, STRESS PERIOD   14


  VOLUME BUDGET FOR ENTIRE MODEL AT END OF TIME STEP    3, STRESS PERIOD  14
  ---------------------------------------------------------------------------------------------------

     CUMULATIVE VOLUME      L**3       RATES FOR THIS TIME STEP      L**3/T          PACKAGE NAME    
     ------------------                 ------------------------                     ----------------

           IN:                                      IN:
           ---                                      ---
              STO-SS =          18.1527                STO-SS =           0.0000     STORAGE         
              STO-SY =       11534.7191                STO-SY =           0.0000     STORAGE         
                 RCH =       62520.8492                   RCH =         286.0273     RCHA            
                 CHD =          58.2744                   CHD =           0.0000     CHD             

            TOTAL IN =       74131.9953              TOTAL IN =         286.0273

          OUT:                                     OUT:
          ----                                     ----
              STO-SS =          13.8467                STO-SS =           0.1000     STORAGE         
              STO-SY =        8895.6115                STO-SY =          62.8069     STORAGE         
                 RCH =           0.0000                   RCH =           0.0000     RCHA            
                 CHD =       65222.8131                   CHD =         223.1241     CHD             

           TOTAL OUT =       74132.2713             TOTAL OUT =         286.0310

            IN - OUT =          -0.2761              IN - OUT =      -3.6875E-03

 PERCENT DISCREPANCY =          -0.00     PERCENT DISCREPANCY =          -0.00




         TIME SUMMARY AT END OF TIME STEP    3 IN STRESS PERIOD   14
                    SECONDS     MINUTES      HOURS       DAYS        YEARS
                    -----------------------------------------------------------
   TIME STEP LENGTH 2.59200E+05  4320.0      72.000      3.0000     8.21355E-03
 STRESS PERIOD TIME 7.77600E+05  12960.      216.00      9.0000     2.46407E-02
         TOTAL TIME 3.19680E+07 5.32800E+05  8880.0      370.00      1.0130    
 UBDSV1 SAVING           STO-SS ON UNIT   1016 AT TIME STEP      4, STRESS PERIOD     14
 UBDSV1 SAVING           STO-SY ON UNIT   1016 AT TIME STEP      4, STRESS PERIOD     14
 UBDSV1 SAVING     FLOW-JA-FACE ON UNIT   1016 AT TIME STEP      4, STRESS PERIOD     14
 UBDSV06 SAVING              RCH IN MODEL TEST_TRANS       PACKAGE TEST_TRANS      CONNECTED TO MODEL TEST_TRANS       PACKAGE RCHA             ON UNIT   1016 AT TIME STEP      4, STRESS PERIOD     14
 UBDSV06 SAVING              CHD IN MODEL TEST_TRANS       PACKAGE TEST_TRANS      CONNECTED TO MODEL TEST_TRANS       PACKAGE CHD              ON UNIT   1016 AT TIME STEP      4, STRESS PERIOD     14

 HEAD WILL BE SAVED ON UNIT 1017 AT END OF TIME STEP    4, STRESS PERIOD   14


  VOLUME BUDGET FOR ENTIRE MODEL AT END OF TIME STEP    4, STRESS PERIOD  14
  ---------------------------------------------------------------------------------------------------

     CUMULATIVE VOLUME      L**3       RATES FOR THIS TIME STEP      L**3/T          PACKAGE NAME    
     ------------------                 ------------------------                     ----------------

           IN:                                      IN:
           ---                                      ---
              STO-SS =          18.1527                STO-SS =           0.0000     STORAGE         
              STO-SY =       11534.7191                STO-SY =           0.0000     STORAGE         
                 RCH =       63378.9311                   RCH =         286.0273     RCHA            
                 CHD =          58.2744                   CHD =           0.0000     CHD             

            TOTAL IN =       74990.0771              TOTAL IN =         286.0273

          OUT:                                     OUT:
          ----                                     ----
              STO-SS =          14.1383                STO-SS =       9.7221E-02     STORAGE         
              STO-SY =        9078.1206                STO-SY =          60.8364     STORAGE         
                 RCH =           0.0000                   RCH =           0.0000     RCHA            
                 CHD =       65898.1182                   CHD =         225.1017     CHD             

           TOTAL OUT =       74990.3772             TOTAL OUT =         286.0353

            IN - OUT =          -0.3000              IN - OUT =      -7.9927E-03

 PERCENT DISCREPANCY =          -0.00     PERCENT DISCREPANCY =          -0.00




         TIME SUMMARY AT END OF TIME STEP    4 IN STRESS PERIOD   14
                    SECONDS     MINUTES      HOURS       DAYS        YEARS
                    -----------------------------------------------------------
   TIME STEP LENGTH 2.59200E+05  4320.0      72.000      3.0000     8.21355E-03
 STRESS PERIOD TIME 1.03680E+06  17280.      288.00      12.000     3.28542E-02
         TOTAL TIME 3.22272E+07 5.37120E+05  8952.0      373.00      1.0212    
 UBDSV1 SAVING           STO-SS ON UNIT   1016 AT TIME STEP      5, STRESS PERIOD     14
 UBDSV1 SAVING           STO-SY ON UNIT   1016 AT TIME STEP      5, STRESS PERIOD     14
 UBDSV1 SAVING     FLOW-JA-FACE ON UNIT   1016 AT TIME STEP      5, STRESS PERIOD     14
 UBDSV06 SAVING              RCH IN MODEL TEST_TRANS       PACKAGE TEST_TRANS      CONNECTED TO MODEL TEST_TRANS       PACKAGE RCHA             ON UNIT   1016 AT TIME STEP      5, STRESS PERIOD     14
 UBDSV06 SAVING              CHD IN MODEL TEST_TRANS       PACKAGE TEST_TRANS      CONNECTED TO MODEL TEST_TRANS       PACKAGE CHD              ON UNIT   1016 AT TIME STEP      5, STRESS PERIOD     14

 HEAD WILL BE SAVED ON UNIT 1017 AT END OF TIME STEP    5, STRESS PERIOD   14


  VOLUME BUDGET FOR ENTIRE MODEL AT END OF TIME STEP    5, STRESS PERIOD  14
  ---------------------------------------------------------------------------------------------------

     CUMULATIVE VOLUME      L**3       RATES FOR THIS TIME STEP      L**3/T          PACKAGE NAME    
     ------------------                 ------------------------                     ----------------

           IN:                                      IN:
           ---                                      ---
              STO-SS =          18.1527                STO-SS =           0.0000     STORAGE         
              STO-SY =       11534.7191                STO-SY =           0.0000     STORAGE         
                 RCH =       64237.0129                   RCH =         286.0273     RCHA            
                 CHD =          58.2744                   CHD =           0.0000     CHD             

            TOTAL IN =       75848.1590              TOTAL IN =         286.0273

          OUT:                                     OUT:
          ----                                     ----
              STO-SS =          14.4234                STO-SS =       9.5024E-02     STORAGE         
              STO-SY =        9256.1251                STO-SY =          59.3348     STORAGE         
                 RCH =           0.0000                   RCH =           0.0000     RCHA            
                 CHD =       66577.9329                   CHD =         226.6049     CHD             

           TOTAL OUT =       75848.4815             TOTAL OUT =         286.0348

            IN - OUT =          -0.3225              IN - OUT =      -7.4719E-03

 PERCENT DISCREPANCY =          -0.00     PERCENT DISCREPANCY =          -0.00




         TIME SUMMARY AT END OF TIME STEP    5 IN STRESS PERIOD   14
                    SECONDS     MINUTES      HOURS       DAYS        YEARS
                    -----------------------------------------------------------
   TIME STEP LENGTH 2.59200E+05  4320.0      72.000      3.0000     8.21355E-03
 STRESS PERIOD TIME 1.29600E+06  21600.      360.00      15.000     4.10678E-02
         TOTAL TIME 3.24864E+07 5.41440E+05  9024.0      376.00      1.0294    
 UBDSV1 SAVING           STO-SS ON UNIT   1016 AT TIME STEP      6, STRESS PERIOD     14
 UBDSV1 SAVING           STO-SY ON UNIT   1016 AT TIME STEP      6, STRESS PERIOD     14
 UBDSV1 SAVING     FLOW-JA-FACE ON UNIT   1016 AT TIME STEP      6, STRESS PERIOD     14
 UBDSV06 SAVING              RCH IN MODEL TEST_TRANS       PACKAGE TEST_TRANS      CONNECTED TO MODEL TEST_TRANS       PACKAGE RCHA             ON UNIT   1016 AT TIME STEP      6, STRESS PERIOD     14
 UBDSV06 SAVING              CHD IN MODEL TEST_TRANS       PACKAGE TEST_TRANS      CONNECTED TO MODEL TEST_TRANS       PACKAGE CHD              ON UNIT   1016 AT TIME STEP      6, STRESS PERIOD     14

 HEAD WILL BE SAVED ON UNIT 1017 AT END OF TIME STEP    6, STRESS PERIOD   14


  VOLUME BUDGET FOR ENTIRE MODEL AT END OF TIME STEP    6, STRESS PERIOD  14
  ---------------------------------------------------------------------------------------------------

     CUMULATIVE VOLUME      L**3       RATES FOR THIS TIME STEP      L**3/T          PACKAGE NAME    
     ------------------                 ------------------------                     ----------------

           IN:                                      IN:
           ---                                      ---
              STO-SS =          18.1527                STO-SS =           0.0000     STORAGE         
              STO-SY =       11534.7191                STO-SY =           0.0000     STORAGE         
                 RCH =       65095.0948                   RCH =         286.0273     RCHA            
                 CHD =          58.2744                   CHD =           0.0000     CHD             

            TOTAL IN =       76706.2409              TOTAL IN =         286.0273

          OUT:                                     OUT:
          ----                                     ----
              STO-SS =          14.7028                STO-SS =       9.3139E-02     STORAGE         
              STO-SY =        9430.3393                STO-SY =          58.0714     STORAGE         
                 RCH =           0.0000                   RCH =           0.0000     RCHA            
                 CHD =       67261.5425                   CHD =         227.8698     CHD             

           TOTAL OUT =       76706.5846             TOTAL OUT =         286.0344

            IN - OUT =          -0.3437              IN - OUT =      -7.0909E-03

 PERCENT DISCREPANCY =          -0.00     PERCENT DISCREPANCY =          -0.00




         TIME SUMMARY AT END OF TIME STEP    6 IN STRESS PERIOD   14
                    SECONDS     MINUTES      HOURS       DAYS        YEARS
                    -----------------------------------------------------------
   TIME STEP LENGTH 2.59200E+05  4320.0      72.000      3.0000     8.21355E-03
 STRESS PERIOD TIME 1.55520E+06  25920.      432.00      18.000     4.92813E-02
         TOTAL TIME 3.27456E+07 5.45760E+05  9096.0      379.00      1.0376    
 UBDSV1 SAVING           STO-SS ON UNIT   1016 AT TIME STEP      7, STRESS PERIOD     14
 UBDSV1 SAVING           STO-SY ON UNIT   1016 AT TIME STEP      7, STRESS PERIOD     14
 UBDSV1 SAVING     FLOW-JA-FACE ON UNIT   1016 AT TIME STEP      7, STRESS PERIOD     14
 UBDSV06 SAVING              RCH IN MODEL TEST_TRANS       PACKAGE TEST_TRANS      CONNECTED TO MODEL TEST_TRANS       PACKAGE RCHA             ON UNIT   1016 AT TIME STEP      7, STRESS PERIOD     14
 UBDSV06 SAVING              CHD IN MODEL TEST_TRANS       PACKAGE TEST_TRANS      CONNECTED TO MODEL TEST_TRANS       PACKAGE CHD              ON UNIT   1016 AT TIME STEP      7, STRESS PERIOD     14

 HEAD WILL BE SAVED ON UNIT 1017 AT END OF TIME STEP    7, STRESS PERIOD   14


  VOLUME BUDGET FOR ENTIRE MODEL AT END OF TIME STEP    7, STRESS PERIOD  14
  ---------------------------------------------------------------------------------------------------

     CUMULATIVE VOLUME      L**3       RATES FOR THIS TIME STEP      L**3/T          PACKAGE NAME    
     ------------------                 ------------------------                     ----------------

           IN:                                      IN:
           ---                                      ---
              STO-SS =          18.1527                STO-SS =           0.0000     STORAGE         
              STO-SY =       11534.7191                STO-SY =           0.0000     STORAGE         
                 RCH =       65953.1767                   RCH =         286.0273     RCHA            
                 CHD =          58.2744                   CHD =           0.0000     CHD             

            TOTAL IN =       77564.3227              TOTAL IN =         286.0273

          OUT:                                     OUT:
          ----                                     ----
              STO-SS =          14.9771                STO-SS =       9.1431E-02     STORAGE         
              STO-SY =        9601.1648                STO-SY =          56.9418     STORAGE         
                 RCH =           0.0000                   RCH =           0.0000     RCHA            
                 CHD =       67948.5450                   CHD =         229.0009     CHD             

           TOTAL OUT =       77564.6869             TOTAL OUT =         286.0341

            IN - OUT =          -0.3642              IN - OUT =      -6.8211E-03

 PERCENT DISCREPANCY =          -0.00     PERCENT DISCREPANCY =          -0.00




         TIME SUMMARY AT END OF TIME STEP    7 IN STRESS PERIOD   14
                    SECONDS     MINUTES      HOURS       DAYS        YEARS
                    -----------------------------------------------------------
   TIME STEP LENGTH 2.59200E+05  4320.0      72.000      3.0000     8.21355E-03
 STRESS PERIOD TIME 1.81440E+06  30240.      504.00      21.000     5.74949E-02
         TOTAL TIME 3.30048E+07 5.50080E+05  9168.0      382.00      1.0459    
 UBDSV1 SAVING           STO-SS ON UNIT   1016 AT TIME STEP      8, STRESS PERIOD     14
 UBDSV1 SAVING           STO-SY ON UNIT   1016 AT TIME STEP      8, STRESS PERIOD     14
 UBDSV1 SAVING     FLOW-JA-FACE ON UNIT   1016 AT TIME STEP      8, STRESS PERIOD     14
 UBDSV06 SAVING              RCH IN MODEL TEST_TRANS       PACKAGE TEST_TRANS      CONNECTED TO MODEL TEST_TRANS       PACKAGE RCHA             ON UNIT   1016 AT TIME STEP      8, STRESS PERIOD     14
 UBDSV06 SAVING              CHD IN MODEL TEST_TRANS       PACKAGE TEST_TRANS      CONNECTED TO MODEL TEST_TRANS       PACKAGE CHD              ON UNIT   1016 AT TIME STEP      8, STRESS PERIOD     14

 HEAD WILL BE SAVED ON UNIT 1017 AT END OF TIME STEP    8, STRESS PERIOD   14


  VOLUME BUDGET FOR ENTIRE MODEL AT END OF TIME STEP    8, STRESS PERIOD  14
  ---------------------------------------------------------------------------------------------------

     CUMULATIVE VOLUME      L**3       RATES FOR THIS TIME STEP      L**3/T          PACKAGE NAME    
     ------------------                 ------------------------                     ----------------

           IN:                                      IN:
           ---                                      ---
              STO-SS =          18.1527                STO-SS =           0.0000     STORAGE         
              STO-SY =       11534.7191                STO-SY =           0.0000     STORAGE         
                 RCH =       66811.2585                   RCH =         286.0273     RCHA            
                 CHD =          58.2744                   CHD =           0.0000     CHD             

            TOTAL IN =       78422.4046              TOTAL IN =         286.0273

          OUT:                                     OUT:
          ----                                     ----
              STO-SS =          15.2466                STO-SS =       8.9832E-02     STORAGE         
              STO-SY =        9768.8473                STO-SY =          55.8942     STORAGE         
                 RCH =           0.0000                   RCH =           0.0000     RCHA            
                 CHD =       68638.6948                   CHD =         230.0499     CHD             

           TOTAL OUT =       78422.7887             TOTAL OUT =         286.0339

            IN - OUT =          -0.3841              IN - OUT =      -6.6286E-03

 PERCENT DISCREPANCY =          -0.00     PERCENT DISCREPANCY =          -0.00




         TIME SUMMARY AT END OF TIME STEP    8 IN STRESS PERIOD   14
                    SECONDS     MINUTES      HOURS       DAYS        YEARS
                    -----------------------------------------------------------
   TIME STEP LENGTH 2.59200E+05  4320.0      72.000      3.0000     8.21355E-03
 STRESS PERIOD TIME 2.07360E+06  34560.      576.00      24.000     6.57084E-02
         TOTAL TIME 3.32640E+07 5.54400E+05  9240.0      385.00      1.0541    
 UBDSV1 SAVING           STO-SS ON UNIT   1016 AT TIME STEP      9, STRESS PERIOD     14
 UBDSV1 SAVING           STO-SY ON UNIT   1016 AT TIME STEP      9, STRESS PERIOD     14
 UBDSV1 SAVING     FLOW-JA-FACE ON UNIT   1016 AT TIME STEP      9, STRESS PERIOD     14
 UBDSV06 SAVING              RCH IN MODEL TEST_TRANS       PACKAGE TEST_TRANS      CONNECTED TO MODEL TEST_TRANS       PACKAGE RCHA             ON UNIT   1016 AT TIME STEP      9, STRESS PERIOD     14
 UBDSV06 SAVING              CHD IN MODEL TEST_TRANS       PACKAGE TEST_TRANS      CONNECTED TO MODEL TEST_TRANS       PACKAGE CHD              ON UNIT   1016 AT TIME STEP      9, STRESS PERIOD     14

 HEAD WILL BE SAVED ON UNIT 1017 AT END OF TIME STEP    9, STRESS PERIOD   14


  VOLUME BUDGET FOR ENTIRE MODEL AT END OF TIME STEP    9, STRESS PERIOD  14
  ---------------------------------------------------------------------------------------------------

     CUMULATIVE VOLUME      L**3       RATES FOR THIS TIME STEP      L**3/T          PACKAGE NAME    
     ------------------                 ------------------------                     ----------------

           IN:                                      IN:
           ---                                      ---
              STO-SS =          18.1527                STO-SS =           0.0000     STORAGE         
              STO-SY =       11534.7191                STO-SY =           0.0000     STORAGE         
                 RCH =       67669.3404                   RCH =         286.0273     RCHA            
                 CHD =          58.2744                   CHD =           0.0000     CHD             

            TOTAL IN =       79280.4865              TOTAL IN =         286.0273

          OUT:                                     OUT:
          ----                                     ----
              STO-SS =          15.5115                STO-SS =       8.8305E-02     STORAGE         
              STO-SY =        9933.5485                STO-SY =          54.9004     STORAGE         
                 RCH =           0.0000                   RCH =           0.0000     RCHA            
                 CHD =       69331.8300                   CHD =         231.0451     CHD             

           TOTAL OUT =       79280.8900             TOTAL OUT =         286.0338

            IN - OUT =          -0.4035              IN - OUT =      -6.4862E-03

 PERCENT DISCREPANCY =          -0.00     PERCENT DISCREPANCY =          -0.00




         TIME SUMMARY AT END OF TIME STEP    9 IN STRESS PERIOD   14
                    SECONDS     MINUTES      HOURS       DAYS        YEARS
                    -----------------------------------------------------------
   TIME STEP LENGTH 2.59200E+05  4320.0      72.000      3.0000     8.21355E-03
 STRESS PERIOD TIME 2.33280E+06  38880.      648.00      27.000     7.39220E-02
         TOTAL TIME 3.35232E+07 5.58720E+05  9312.0      388.00      1.0623    
 UBDSV1 SAVING           STO-SS ON UNIT   1016 AT TIME STEP     10, STRESS PERIOD     14
 UBDSV1 SAVING           STO-SY ON UNIT   1016 AT TIME STEP     10, STRESS PERIOD     14
 UBDSV1 SAVING     FLOW-JA-FACE ON UNIT   1016 AT TIME STEP     10, STRESS PERIOD     14
 UBDSV06 SAVING              RCH IN MODEL TEST_TRANS       PACKAGE TEST_TRANS      CONNECTED TO MODEL TEST_TRANS       PACKAGE RCHA             ON UNIT   1016 AT TIME STEP     10, STRESS PERIOD     14
 UBDSV06 SAVING              CHD IN MODEL TEST_TRANS       PACKAGE TEST_TRANS      CONNECTED TO MODEL TEST_TRANS       PACKAGE CHD              ON UNIT   1016 AT TIME STEP     10, STRESS PERIOD     14

 HEAD WILL BE SAVED ON UNIT 1017 AT END OF TIME STEP   10, STRESS PERIOD   14


  VOLUME BUDGET FOR ENTIRE MODEL AT END OF TIME STEP   10, STRESS PERIOD  14
  ---------------------------------------------------------------------------------------------------

     CUMULATIVE VOLUME      L**3       RATES FOR THIS TIME STEP      L**3/T          PACKAGE NAME    
     ------------------                 ------------------------                     ----------------

           IN:                                      IN:
           ---                                      ---
              STO-SS =          18.1527                STO-SS =           0.0000     STORAGE         
              STO-SY =       11534.7191                STO-SY =           0.0000     STORAGE         
                 RCH =       68527.4223                   RCH =         286.0273     RCHA            
                 CHD =          58.2744                   CHD =           0.0000     CHD             

            TOTAL IN =       80138.5683              TOTAL IN =         286.0273

          OUT:                                     OUT:
          ----                                     ----
              STO-SS =          15.7720                STO-SS =       8.6828E-02     STORAGE         
              STO-SY =       10095.3813                STO-SY =          53.9443     STORAGE         
                 RCH =           0.0000                   RCH =           0.0000     RCHA            
                 CHD =       70027.8377                   CHD =         232.0026     CHD             

           TOTAL OUT =       80138.9910             TOTAL OUT =         286.0337

            IN - OUT =          -0.4227              IN - OUT =      -6.3757E-03

 PERCENT DISCREPANCY =          -0.00     PERCENT DISCREPANCY =          -0.00




         TIME SUMMARY AT END OF TIME STEP   10 IN STRESS PERIOD   14
                    SECONDS     MINUTES      HOURS       DAYS        YEARS
                    -----------------------------------------------------------
   TIME STEP LENGTH 2.59200E+05  4320.0      72.000      3.0000     8.21355E-03
 STRESS PERIOD TIME 2.59200E+06  43200.      720.00      30.000     8.21355E-02
         TOTAL TIME 3.37824E+07 5.63040E+05  9384.0      391.00      1.0705    

 OUTPUT CONTROL FOR STRESS PERIOD 15 IS REPEATED USING SETTINGS FROM A PREVIOUS STRESS PERIOD.


 STRESS PERIOD 15 IS TRANSIENT


                 RECHARGE =  0.2465750E-02
 UBDSV1 SAVING           STO-SS ON UNIT   1016 AT TIME STEP      1, STRESS PERIOD     15
 UBDSV1 SAVING           STO-SY ON UNIT   1016 AT TIME STEP      1, STRESS PERIOD     15
 UBDSV1 SAVING     FLOW-JA-FACE ON UNIT   1016 AT TIME STEP      1, STRESS PERIOD     15
 UBDSV06 SAVING              RCH IN MODEL TEST_TRANS       PACKAGE TEST_TRANS      CONNECTED TO MODEL TEST_TRANS       PACKAGE RCHA             ON UNIT   1016 AT TIME STEP      1, STRESS PERIOD     15
 UBDSV06 SAVING              CHD IN MODEL TEST_TRANS       PACKAGE TEST_TRANS      CONNECTED TO MODEL TEST_TRANS       PACKAGE CHD              ON UNIT   1016 AT TIME STEP      1, STRESS PERIOD     15

 HEAD WILL BE SAVED ON UNIT 1017 AT END OF TIME STEP    1, STRESS PERIOD   15


  VOLUME BUDGET FOR ENTIRE MODEL AT END OF TIME STEP    1, STRESS PERIOD  15
  ---------------------------------------------------------------------------------------------------

     CUMULATIVE VOLUME      L**3       RATES FOR THIS TIME STEP      L**3/T          PACKAGE NAME    
     ------------------                 ------------------------                     ----------------

           IN:                                      IN:
           ---                                      ---
              STO-SS =          18.1830                STO-SS =       1.0129E-02     STORAGE         
              STO-SY =       11553.8811                STO-SY =           6.3873     STORAGE         
                 RCH =       69170.9830                   RCH =         214.5203     RCHA            
                 CHD =          58.2744                   CHD =           0.0000     CHD             

            TOTAL IN =       80801.3215              TOTAL IN =         220.9177

          OUT:                                     OUT:
          ----                                     ----
              STO-SS =          15.9637                STO-SS =       6.3884E-02     STORAGE         
              STO-SY =       10235.3795                STO-SY =          46.6661     STORAGE         
                 RCH =           0.0000                   RCH =           0.0000     RCHA            
                 CHD =       70550.3876                   CHD =         174.1833     CHD             

           TOTAL OUT =       80801.7308             TOTAL OUT =         220.9133

            IN - OUT =          -0.4093              IN - OUT =       4.4511E-03

 PERCENT DISCREPANCY =          -0.00     PERCENT DISCREPANCY =           0.00




         TIME SUMMARY AT END OF TIME STEP    1 IN STRESS PERIOD   15
                    SECONDS     MINUTES      HOURS       DAYS        YEARS
                    -----------------------------------------------------------
   TIME STEP LENGTH 2.59200E+05  4320.0      72.000      3.0000     8.21355E-03
 STRESS PERIOD TIME 2.59200E+05  4320.0      72.000      3.0000     8.21355E-03
         TOTAL TIME 3.40416E+07 5.67360E+05  9456.0      394.00      1.0787    
 UBDSV1 SAVING           STO-SS ON UNIT   1016 AT TIME STEP      2, STRESS PERIOD     15
 UBDSV1 SAVING           STO-SY ON UNIT   1016 AT TIME STEP      2, STRESS PERIOD     15
 UBDSV1 SAVING     FLOW-JA-FACE ON UNIT   1016 AT TIME STEP      2, STRESS PERIOD     15
 UBDSV06 SAVING              RCH IN MODEL TEST_TRANS       PACKAGE TEST_TRANS      CONNECTED TO MODEL TEST_TRANS       PACKAGE RCHA             ON UNIT   1016 AT TIME STEP      2, STRESS PERIOD     15
 UBDSV06 SAVING              CHD IN MODEL TEST_TRANS       PACKAGE TEST_TRANS      CONNECTED TO MODEL TEST_TRANS       PACKAGE CHD              ON UNIT   1016 AT TIME STEP      2, STRESS PERIOD     15

 HEAD WILL BE SAVED ON UNIT 1017 AT END OF TIME STEP    2, STRESS PERIOD   15


  VOLUME BUDGET FOR ENTIRE MODEL AT END OF TIME STEP    2, STRESS PERIOD  15
  ---------------------------------------------------------------------------------------------------

     CUMULATIVE VOLUME      L**3       RATES FOR THIS TIME STEP      L**3/T          PACKAGE NAME    
     ------------------                 ------------------------                     ----------------

           IN:                                      IN:
           ---                                      ---
              STO-SS =          18.2039                STO-SS =       6.9444E-03     STORAGE         
              STO-SY =       11566.8524                STO-SY =           4.3238     STORAGE         
                 RCH =       69814.5438                   RCH =         214.5203     RCHA            
                 CHD =          58.2744                   CHD =           0.0000     CHD             

            TOTAL IN =       81457.8744              TOTAL IN =         218.8510

          OUT:                                     OUT:
          ----                                     ----
              STO-SS =          16.0701                STO-SS =       3.5471E-02     STORAGE         
              STO-SY =       10311.4162                STO-SY =          25.3456     STORAGE         
                 RCH =           0.0000                   RCH =           0.0000     RCHA            
                 CHD =       71130.7892                   CHD =         193.4672     CHD             

           TOTAL OUT =       81458.2755             TOTAL OUT =         218.8482

            IN - OUT =          -0.4011              IN - OUT =       2.7279E-03

 PERCENT DISCREPANCY =          -0.00     PERCENT DISCREPANCY =           0.00




         TIME SUMMARY AT END OF TIME STEP    2 IN STRESS PERIOD   15
                    SECONDS     MINUTES      HOURS       DAYS        YEARS
                    -----------------------------------------------------------
   TIME STEP LENGTH 2.59200E+05  4320.0      72.000      3.0000     8.21355E-03
 STRESS PERIOD TIME 5.18400E+05  8640.0      144.00      6.0000     1.64271E-02
         TOTAL TIME 3.43008E+07 5.71680E+05  9528.0      397.00      1.0869    
 UBDSV1 SAVING           STO-SS ON UNIT   1016 AT TIME STEP      3, STRESS PERIOD     15
 UBDSV1 SAVING           STO-SY ON UNIT   1016 AT TIME STEP      3, STRESS PERIOD     15
 UBDSV1 SAVING     FLOW-JA-FACE ON UNIT   1016 AT TIME STEP      3, STRESS PERIOD     15
 UBDSV06 SAVING              RCH IN MODEL TEST_TRANS       PACKAGE TEST_TRANS      CONNECTED TO MODEL TEST_TRANS       PACKAGE RCHA             ON UNIT   1016 AT TIME STEP      3, STRESS PERIOD     15
 UBDSV06 SAVING              CHD IN MODEL TEST_TRANS       PACKAGE TEST_TRANS      CONNECTED TO MODEL TEST_TRANS       PACKAGE CHD              ON UNIT   1016 AT TIME STEP      3, STRESS PERIOD     15

 HEAD WILL BE SAVED ON UNIT 1017 AT END OF TIME STEP    3, STRESS PERIOD   15


  VOLUME BUDGET FOR ENTIRE MODEL AT END OF TIME STEP    3, STRESS PERIOD  15
  ---------------------------------------------------------------------------------------------------

     CUMULATIVE VOLUME      L**3       RATES FOR THIS TIME STEP      L**3/T          PACKAGE NAME    
     ------------------                 ------------------------                     ----------------

           IN:                                      IN:
           ---                                      ---
              STO-SS =          18.2193                STO-SS =       5.1480E-03     STORAGE         
              STO-SY =       11576.3835                STO-SY =           3.1770     STORAGE         
                 RCH =       70458.1045                   RCH =         214.5203     RCHA            
                 CHD =          58.2744                   CHD =           0.0000     CHD             

            TOTAL IN =       82110.9817              TOTAL IN =         217.7024

          OUT:                                     OUT:
          ----                                     ----
              STO-SS =          16.1403                STO-SS =       2.3422E-02     STORAGE         
              STO-SY =       10360.8718                STO-SY =          16.4852     STORAGE         
                 RCH =           0.0000                   RCH =           0.0000     RCHA            
                 CHD =       71734.3708                   CHD =         201.1939     CHD             

           TOTAL OUT =       82111.3830             TOTAL OUT =         217.7025

            IN - OUT =          -0.4013              IN - OUT =      -5.2406E-05

 PERCENT DISCREPANCY =          -0.00     PERCENT DISCREPANCY =          -0.00




         TIME SUMMARY AT END OF TIME STEP    3 IN STRESS PERIOD   15
                    SECONDS     MINUTES      HOURS       DAYS        YEARS
                    -----------------------------------------------------------
   TIME STEP LENGTH 2.59200E+05  4320.0      72.000      3.0000     8.21355E-03
 STRESS PERIOD TIME 7.77600E+05  12960.      216.00      9.0000     2.46407E-02
         TOTAL TIME 3.45600E+07 5.76000E+05  9600.0      400.00      1.0951    
 UBDSV1 SAVING           STO-SS ON UNIT   1016 AT TIME STEP      4, STRESS PERIOD     15
 UBDSV1 SAVING           STO-SY ON UNIT   1016 AT TIME STEP      4, STRESS PERIOD     15
 UBDSV1 SAVING     FLOW-JA-FACE ON UNIT   1016 AT TIME STEP      4, STRESS PERIOD     15
 UBDSV06 SAVING              RCH IN MODEL TEST_TRANS       PACKAGE TEST_TRANS      CONNECTED TO MODEL TEST_TRANS       PACKAGE RCHA             ON UNIT   1016 AT TIME STEP      4, STRESS PERIOD     15
 UBDSV06 SAVING              CHD IN MODEL TEST_TRANS       PACKAGE TEST_TRANS      CONNECTED TO MODEL TEST_TRANS       PACKAGE CHD              ON UNIT   1016 AT TIME STEP      4, STRESS PERIOD     15

 HEAD WILL BE SAVED ON UNIT 1017 AT END OF TIME STEP    4, STRESS PERIOD   15


  VOLUME BUDGET FOR ENTIRE MODEL AT END OF TIME STEP    4, STRESS PERIOD  15
  ---------------------------------------------------------------------------------------------------

     CUMULATIVE VOLUME      L**3       RATES FOR THIS TIME STEP      L**3/T          PACKAGE NAME    
     ------------------                 ------------------------                     ----------------

           IN:                                      IN:
           ---                                      ---
              STO-SS =          18.2312                STO-SS =       3.9643E-03     STORAGE         
              STO-SY =       11583.6689                STO-SY =           2.4285     STORAGE         
                 RCH =       71101.6653                   RCH =         214.5203     RCHA            
                 CHD =          58.2744                   CHD =           0.0000     CHD             

            TOTAL IN =       82761.8398              TOTAL IN =         216.9527

          OUT:                                     OUT:
          ----                                     ----
              STO-SS =          16.1914                STO-SS =       1.7029E-02     STORAGE         
              STO-SY =       10396.4226                STO-SY =          11.8502     STORAGE         
                 RCH =           0.0000                   RCH =           0.0000     RCHA            
                 CHD =       72349.6322                   CHD =         205.0871     CHD             

           TOTAL OUT =       82762.2462             TOTAL OUT =         216.9544

            IN - OUT =          -0.4065              IN - OUT =      -1.7302E-03

 PERCENT DISCREPANCY =          -0.00     PERCENT DISCREPANCY =          -0.00




         TIME SUMMARY AT END OF TIME STEP    4 IN STRESS PERIOD   15
                    SECONDS     MINUTES      HOURS       DAYS        YEARS
                    -----------------------------------------------------------
   TIME STEP LENGTH 2.59200E+05  4320.0      72.000      3.0000     8.21355E-03
 STRESS PERIOD TIME 1.03680E+06  17280.      288.00      12.000     3.28542E-02
         TOTAL TIME 3.48192E+07 5.80320E+05  9672.0      403.00      1.1034    
 UBDSV1 SAVING           STO-SS ON UNIT   1016 AT TIME STEP      5, STRESS PERIOD     15
 UBDSV1 SAVING           STO-SY ON UNIT   1016 AT TIME STEP      5, STRESS PERIOD     15
 UBDSV1 SAVING     FLOW-JA-FACE ON UNIT   1016 AT TIME STEP      5, STRESS PERIOD     15
 UBDSV06 SAVING              RCH IN MODEL TEST_TRANS       PACKAGE TEST_TRANS      CONNECTED TO MODEL TEST_TRANS       PACKAGE RCHA             ON UNIT   1016 AT TIME STEP      5, STRESS PERIOD     15
 UBDSV06 SAVING              CHD IN MODEL TEST_TRANS       PACKAGE TEST_TRANS      CONNECTED TO MODEL TEST_TRANS       PACKAGE CHD              ON UNIT   1016 AT TIME STEP      5, STRESS PERIOD     15

 HEAD WILL BE SAVED ON UNIT 1017 AT END OF TIME STEP    5, STRESS PERIOD   15


  VOLUME BUDGET FOR ENTIRE MODEL AT END OF TIME STEP    5, STRESS PERIOD  15
  ---------------------------------------------------------------------------------------------------

     CUMULATIVE VOLUME      L**3       RATES FOR THIS TIME STEP      L**3/T          PACKAGE NAME    
     ------------------                 ------------------------                     ----------------

           IN:                                      IN:
           ---                                      ---
              STO-SS =          18.2406                STO-SS =       3.1367E-03     STORAGE         
              STO-SY =       11589.3999                STO-SY =           1.9103     STORAGE         
                 RCH =       71745.2260                   RCH =         214.5203     RCHA            
                 CHD =          58.2744                   CHD =           0.0000     CHD             

            TOTAL IN =       83411.1409              TOTAL IN =         216.4337

          OUT:                                     OUT:
          ----                                     ----
              STO-SS =          16.2308                STO-SS =       1.3118E-02     STORAGE         
              STO-SY =       10423.5649                STO-SY =           9.0474     STORAGE         
                 RCH =           0.0000                   RCH =           0.0000     RCHA            
                 CHD =       72971.7643                   CHD =         207.3774     CHD             

           TOTAL OUT =       83411.5600             TOTAL OUT =         216.4379

            IN - OUT =          -0.4191              IN - OUT =      -4.1917E-03

 PERCENT DISCREPANCY =          -0.00     PERCENT DISCREPANCY =          -0.00




         TIME SUMMARY AT END OF TIME STEP    5 IN STRESS PERIOD   15
                    SECONDS     MINUTES      HOURS       DAYS        YEARS
                    -----------------------------------------------------------
   TIME STEP LENGTH 2.59200E+05  4320.0      72.000      3.0000     8.21355E-03
 STRESS PERIOD TIME 1.29600E+06  21600.      360.00      15.000     4.10678E-02
         TOTAL TIME 3.50784E+07 5.84640E+05  9744.0      406.00      1.1116    
 UBDSV1 SAVING           STO-SS ON UNIT   1016 AT TIME STEP      6, STRESS PERIOD     15
 UBDSV1 SAVING           STO-SY ON UNIT   1016 AT TIME STEP      6, STRESS PERIOD     15
 UBDSV1 SAVING     FLOW-JA-FACE ON UNIT   1016 AT TIME STEP      6, STRESS PERIOD     15
 UBDSV06 SAVING              RCH IN MODEL TEST_TRANS       PACKAGE TEST_TRANS      CONNECTED TO MODEL TEST_TRANS       PACKAGE RCHA             ON UNIT   1016 AT TIME STEP      6, STRESS PERIOD     15
 UBDSV06 SAVING              CHD IN MODEL TEST_TRANS       PACKAGE TEST_TRANS      CONNECTED TO MODEL TEST_TRANS       PACKAGE CHD              ON UNIT   1016 AT TIME STEP      6, STRESS PERIOD     15

 HEAD WILL BE SAVED ON UNIT 1017 AT END OF TIME STEP    6, STRESS PERIOD   15


  VOLUME BUDGET FOR ENTIRE MODEL AT END OF TIME STEP    6, STRESS PERIOD  15
  ---------------------------------------------------------------------------------------------------

     CUMULATIVE VOLUME      L**3       RATES FOR THIS TIME STEP      L**3/T          PACKAGE NAME    
     ------------------                 ------------------------                     ----------------

           IN:                                      IN:
           ---                                      ---
              STO-SS =          18.2483                STO-SS =       2.5486E-03     STORAGE         
              STO-SY =       11594.0363                STO-SY =           1.5455     STORAGE         
                 RCH =       72388.7868                   RCH =         214.5203     RCHA            
                 CHD =          58.2744                   CHD =           0.0000     CHD             

            TOTAL IN =       84059.3457              TOTAL IN =         216.0682

          OUT:                                     OUT:
          ----                                     ----
              STO-SS =          16.2623                STO-SS =       1.0512E-02     STORAGE         
              STO-SY =       10445.1535                STO-SY =           7.1962     STORAGE         
                 RCH =           0.0000                   RCH =           0.0000     RCHA            
                 CHD =       73598.3606                   CHD =         208.8654     CHD             

           TOTAL OUT =       84059.7764             TOTAL OUT =         216.0721

            IN - OUT =          -0.4307              IN - OUT =      -3.8976E-03

 PERCENT DISCREPANCY =          -0.00     PERCENT DISCREPANCY =          -0.00




         TIME SUMMARY AT END OF TIME STEP    6 IN STRESS PERIOD   15
                    SECONDS     MINUTES      HOURS       DAYS        YEARS
                    -----------------------------------------------------------
   TIME STEP LENGTH 2.59200E+05  4320.0      72.000      3.0000     8.21355E-03
 STRESS PERIOD TIME 1.55520E+06  25920.      432.00      18.000     4.92813E-02
         TOTAL TIME 3.53376E+07 5.88960E+05  9816.0      409.00      1.1198    
 UBDSV1 SAVING           STO-SS ON UNIT   1016 AT TIME STEP      7, STRESS PERIOD     15
 UBDSV1 SAVING           STO-SY ON UNIT   1016 AT TIME STEP      7, STRESS PERIOD     15
 UBDSV1 SAVING     FLOW-JA-FACE ON UNIT   1016 AT TIME STEP      7, STRESS PERIOD     15
 UBDSV06 SAVING              RCH IN MODEL TEST_TRANS       PACKAGE TEST_TRANS      CONNECTED TO MODEL TEST_TRANS       PACKAGE RCHA             ON UNIT   1016 AT TIME STEP      7, STRESS PERIOD     15
 UBDSV06 SAVING              CHD IN MODEL TEST_TRANS       PACKAGE TEST_TRANS      CONNECTED TO MODEL TEST_TRANS       PACKAGE CHD              ON UNIT   1016 AT TIME STEP      7, STRESS PERIOD     15

 HEAD WILL BE SAVED ON UNIT 1017 AT END OF TIME STEP    7, STRESS PERIOD   15


  VOLUME BUDGET FOR ENTIRE MODEL AT END OF TIME STEP    7, STRESS PERIOD  15
  ---------------------------------------------------------------------------------------------------

     CUMULATIVE VOLUME      L**3       RATES FOR THIS TIME STEP      L**3/T          PACKAGE NAME    
     ------------------                 ------------------------                     ----------------

           IN:                                      IN:
           ---                                      ---
              STO-SS =          18.2546                STO-SS =       2.1051E-03     STORAGE         
              STO-SY =       11597.8532                STO-SY =           1.2723     STORAGE         
                 RCH =       73032.3475                   RCH =         214.5203     RCHA            
                 CHD =          58.2744                   CHD =           0.0000     CHD             

            TOTAL IN =       84706.7297              TOTAL IN =         215.7947

          OUT:                                     OUT:
          ----                                     ----
              STO-SS =          16.2883                STO-SS =       8.6589E-03     STORAGE         
              STO-SY =       10462.8223                STO-SY =           5.8896     STORAGE         
                 RCH =           0.0000                   RCH =           0.0000     RCHA            
                 CHD =       74228.0590                   CHD =         209.8995     CHD             

           TOTAL OUT =       84707.1696             TOTAL OUT =         215.7977

            IN - OUT =          -0.4399              IN - OUT =      -3.0641E-03

 PERCENT DISCREPANCY =          -0.00     PERCENT DISCREPANCY =          -0.00




         TIME SUMMARY AT END OF TIME STEP    7 IN STRESS PERIOD   15
                    SECONDS     MINUTES      HOURS       DAYS        YEARS
                    -----------------------------------------------------------
   TIME STEP LENGTH 2.59200E+05  4320.0      72.000      3.0000     8.21355E-03
 STRESS PERIOD TIME 1.81440E+06  30240.      504.00      21.000     5.74949E-02
         TOTAL TIME 3.55968E+07 5.93280E+05  9888.0      412.00      1.1280    
 UBDSV1 SAVING           STO-SS ON UNIT   1016 AT TIME STEP      8, STRESS PERIOD     15
 UBDSV1 SAVING           STO-SY ON UNIT   1016 AT TIME STEP      8, STRESS PERIOD     15
 UBDSV1 SAVING     FLOW-JA-FACE ON UNIT   1016 AT TIME STEP      8, STRESS PERIOD     15
 UBDSV06 SAVING              RCH IN MODEL TEST_TRANS       PACKAGE TEST_TRANS      CONNECTED TO MODEL TEST_TRANS       PACKAGE RCHA             ON UNIT   1016 AT TIME STEP      8, STRESS PERIOD     15
 UBDSV06 SAVING              CHD IN MODEL TEST_TRANS       PACKAGE TEST_TRANS      CONNECTED TO MODEL TEST_TRANS       PACKAGE CHD              ON UNIT   1016 AT TIME STEP      8, STRESS PERIOD     15

 HEAD WILL BE SAVED ON UNIT 1017 AT END OF TIME STEP    8, STRESS PERIOD   15


  VOLUME BUDGET FOR ENTIRE MODEL AT END OF TIME STEP    8, STRESS PERIOD  15
  ---------------------------------------------------------------------------------------------------

     CUMULATIVE VOLUME      L**3       RATES FOR THIS TIME STEP      L**3/T          PACKAGE NAME    
     ------------------                 ------------------------                     ----------------

           IN:                                      IN:
           ---                                      ---
              STO-SS =          18.2599                STO-SS =       1.7610E-03     STORAGE         
              STO-SY =       11601.0383                STO-SY =           1.0617     STORAGE         
                 RCH =       73675.9083                   RCH =         214.5203     RCHA            
                 CHD =          58.2744                   CHD =           0.0000     CHD             

            TOTAL IN =       85353.4808              TOTAL IN =         215.5837

          OUT:                                     OUT:
          ----                                     ----
              STO-SS =          16.3101                STO-SS =       7.2822E-03     STORAGE         
              STO-SY =       10477.5991                STO-SY =           4.9256     STORAGE         
                 RCH =           0.0000                   RCH =           0.0000     RCHA            
                 CHD =       74860.0188                   CHD =         210.6533     CHD             

           TOTAL OUT =       85353.9281             TOTAL OUT =         215.5862

            IN - OUT =          -0.4472              IN - OUT =      -2.4358E-03

 PERCENT DISCREPANCY =          -0.00     PERCENT DISCREPANCY =          -0.00




         TIME SUMMARY AT END OF TIME STEP    8 IN STRESS PERIOD   15
                    SECONDS     MINUTES      HOURS       DAYS        YEARS
                    -----------------------------------------------------------
   TIME STEP LENGTH 2.59200E+05  4320.0      72.000      3.0000     8.21355E-03
 STRESS PERIOD TIME 2.07360E+06  34560.      576.00      24.000     6.57084E-02
         TOTAL TIME 3.58560E+07 5.97600E+05  9960.0      415.00      1.1362    
 UBDSV1 SAVING           STO-SS ON UNIT   1016 AT TIME STEP      9, STRESS PERIOD     15
 UBDSV1 SAVING           STO-SY ON UNIT   1016 AT TIME STEP      9, STRESS PERIOD     15
 UBDSV1 SAVING     FLOW-JA-FACE ON UNIT   1016 AT TIME STEP      9, STRESS PERIOD     15
 UBDSV06 SAVING              RCH IN MODEL TEST_TRANS       PACKAGE TEST_TRANS      CONNECTED TO MODEL TEST_TRANS       PACKAGE RCHA             ON UNIT   1016 AT TIME STEP      9, STRESS PERIOD     15
 UBDSV06 SAVING              CHD IN MODEL TEST_TRANS       PACKAGE TEST_TRANS      CONNECTED TO MODEL TEST_TRANS       PACKAGE CHD              ON UNIT   1016 AT TIME STEP      9, STRESS PERIOD     15

 HEAD WILL BE SAVED ON UNIT 1017 AT END OF TIME STEP    9, STRESS PERIOD   15


  VOLUME BUDGET FOR ENTIRE MODEL AT END OF TIME STEP    9, STRESS PERIOD  15
  ---------------------------------------------------------------------------------------------------

     CUMULATIVE VOLUME      L**3       RATES FOR THIS TIME STEP      L**3/T          PACKAGE NAME    
     ------------------                 ------------------------                     ----------------

           IN:                                      IN:
           ---                                      ---
              STO-SS =          18.2643                STO-SS =       1.4846E-03     STORAGE         
              STO-SY =       11603.7186                STO-SY =           0.8934     STORAGE         
                 RCH =       74319.4690                   RCH =         214.5203     RCHA            
                 CHD =          58.2744                   CHD =           0.0000     CHD             

            TOTAL IN =       85999.7263              TOTAL IN =         215.4152

          OUT:                                     OUT:
          ----                                     ----
              STO-SS =          16.3288                STO-SS =       6.2312E-03     STORAGE         
              STO-SY =       10490.1816                STO-SY =           4.1942     STORAGE         
                 RCH =           0.0000                   RCH =           0.0000     RCHA            
                 CHD =       75493.6761                   CHD =         211.2191     CHD             

           TOTAL OUT =       86000.1865             TOTAL OUT =         215.4195

            IN - OUT =          -0.4602              IN - OUT =      -4.3286E-03

 PERCENT DISCREPANCY =          -0.00     PERCENT DISCREPANCY =          -0.00




         TIME SUMMARY AT END OF TIME STEP    9 IN STRESS PERIOD   15
                    SECONDS     MINUTES      HOURS       DAYS        YEARS
                    -----------------------------------------------------------
   TIME STEP LENGTH 2.59200E+05  4320.0      72.000      3.0000     8.21355E-03
 STRESS PERIOD TIME 2.33280E+06  38880.      648.00      27.000     7.39220E-02
         TOTAL TIME 3.61152E+07 6.01920E+05  10032.      418.00      1.1444    
 UBDSV1 SAVING           STO-SS ON UNIT   1016 AT TIME STEP     10, STRESS PERIOD     15
 UBDSV1 SAVING           STO-SY ON UNIT   1016 AT TIME STEP     10, STRESS PERIOD     15
 UBDSV1 SAVING     FLOW-JA-FACE ON UNIT   1016 AT TIME STEP     10, STRESS PERIOD     15
 UBDSV06 SAVING              RCH IN MODEL TEST_TRANS       PACKAGE TEST_TRANS      CONNECTED TO MODEL TEST_TRANS       PACKAGE RCHA             ON UNIT   1016 AT TIME STEP     10, STRESS PERIOD     15
 UBDSV06 SAVING              CHD IN MODEL TEST_TRANS       PACKAGE TEST_TRANS      CONNECTED TO MODEL TEST_TRANS       PACKAGE CHD              ON UNIT   1016 AT TIME STEP     10, STRESS PERIOD     15

 HEAD WILL BE SAVED ON UNIT 1017 AT END OF TIME STEP   10, STRESS PERIOD   15


  VOLUME BUDGET FOR ENTIRE MODEL AT END OF TIME STEP   10, STRESS PERIOD  15
  ---------------------------------------------------------------------------------------------------

     CUMULATIVE VOLUME      L**3       RATES FOR THIS TIME STEP      L**3/T          PACKAGE NAME    
     ------------------                 ------------------------                     ----------------

           IN:                                      IN:
           ---                                      ---
              STO-SS =          18.2681                STO-SS =       1.2563E-03     STORAGE         
              STO-SY =       11605.9838                STO-SY =           0.7551     STORAGE         
                 RCH =       74963.0298                   RCH =         214.5203     RCHA            
                 CHD =          58.2744                   CHD =           0.0000     CHD             

            TOTAL IN =       86645.5560              TOTAL IN =         215.2766

          OUT:                                     OUT:
          ----                                     ----
              STO-SS =          16.3451                STO-SS =       5.4154E-03     STORAGE         
              STO-SY =       10501.0671                STO-SY =           3.6285     STORAGE         
                 RCH =           0.0000                   RCH =           0.0000     RCHA            
                 CHD =       76128.6760                   CHD =         211.6666     CHD             

           TOTAL OUT =       86646.0882             TOTAL OUT =         215.3005

            IN - OUT =          -0.5322              IN - OUT =      -2.3982E-02

 PERCENT DISCREPANCY =          -0.00     PERCENT DISCREPANCY =          -0.01




         TIME SUMMARY AT END OF TIME STEP   10 IN STRESS PERIOD   15
                    SECONDS     MINUTES      HOURS       DAYS        YEARS
                    -----------------------------------------------------------
   TIME STEP LENGTH 2.59200E+05  4320.0      72.000      3.0000     8.21355E-03
 STRESS PERIOD TIME 2.59200E+06  43200.      720.00      30.000     8.21355E-02
         TOTAL TIME 3.63744E+07 6.06240E+05  10104.      421.00      1.1526    

 OUTPUT CONTROL FOR STRESS PERIOD 16 IS REPEATED USING SETTINGS FROM A PREVIOUS STRESS PERIOD.


 STRESS PERIOD 16 IS TRANSIENT


                 RECHARGE =  0.1643840E-02
 UBDSV1 SAVING           STO-SS ON UNIT   1016 AT TIME STEP      1, STRESS PERIOD     16
 UBDSV1 SAVING           STO-SY ON UNIT   1016 AT TIME STEP      1, STRESS PERIOD     16
 UBDSV1 SAVING     FLOW-JA-FACE ON UNIT   1016 AT TIME STEP      1, STRESS PERIOD     16
 UBDSV06 SAVING              RCH IN MODEL TEST_TRANS       PACKAGE TEST_TRANS      CONNECTED TO MODEL TEST_TRANS       PACKAGE RCHA             ON UNIT   1016 AT TIME STEP      1, STRESS PERIOD     16
 UBDSV06 SAVING              CHD IN MODEL TEST_TRANS       PACKAGE TEST_TRANS      CONNECTED TO MODEL TEST_TRANS       PACKAGE CHD              ON UNIT   1016 AT TIME STEP      1, STRESS PERIOD     16

 HEAD WILL BE SAVED ON UNIT 1017 AT END OF TIME STEP    1, STRESS PERIOD   16


  VOLUME BUDGET FOR ENTIRE MODEL AT END OF TIME STEP    1, STRESS PERIOD  16
  ---------------------------------------------------------------------------------------------------

     CUMULATIVE VOLUME      L**3       RATES FOR THIS TIME STEP      L**3/T          PACKAGE NAME    
     ------------------                 ------------------------                     ----------------

           IN:                                      IN:
           ---                                      ---
              STO-SS =          18.5206                STO-SS =       8.4163E-02     STORAGE         
              STO-SY =       11761.0562                STO-SY =          51.6908     STORAGE         
                 RCH =       75392.0720                   RCH =         143.0141     RCHA            
                 CHD =          58.2744                   CHD =           0.0000     CHD             

            TOTAL IN =       87229.9232              TOTAL IN =         194.7891

          OUT:                                     OUT:
          ----                                     ----
              STO-SS =          16.6409                STO-SS =       9.8601E-02     STORAGE         
              STO-SY =       10714.1781                STO-SY =          71.0370     STORAGE         
                 RCH =           0.0000                   RCH =           0.0000     RCHA            
                 CHD =       76499.6195                   CHD =         123.6478     CHD             

           TOTAL OUT =       87230.4385             TOTAL OUT =         194.7834

            IN - OUT =          -0.5153              IN - OUT =       5.6298E-03

 PERCENT DISCREPANCY =          -0.00     PERCENT DISCREPANCY =           0.00




         TIME SUMMARY AT END OF TIME STEP    1 IN STRESS PERIOD   16
                    SECONDS     MINUTES      HOURS       DAYS        YEARS
                    -----------------------------------------------------------
   TIME STEP LENGTH 2.59200E+05  4320.0      72.000      3.0000     8.21355E-03
 STRESS PERIOD TIME 2.59200E+05  4320.0      72.000      3.0000     8.21355E-03
         TOTAL TIME 3.66336E+07 6.10560E+05  10176.      424.00      1.1608    
 UBDSV1 SAVING           STO-SS ON UNIT   1016 AT TIME STEP      2, STRESS PERIOD     16
 UBDSV1 SAVING           STO-SY ON UNIT   1016 AT TIME STEP      2, STRESS PERIOD     16
 UBDSV1 SAVING     FLOW-JA-FACE ON UNIT   1016 AT TIME STEP      2, STRESS PERIOD     16
 UBDSV06 SAVING              RCH IN MODEL TEST_TRANS       PACKAGE TEST_TRANS      CONNECTED TO MODEL TEST_TRANS       PACKAGE RCHA             ON UNIT   1016 AT TIME STEP      2, STRESS PERIOD     16
 UBDSV06 SAVING              CHD IN MODEL TEST_TRANS       PACKAGE TEST_TRANS      CONNECTED TO MODEL TEST_TRANS       PACKAGE CHD              ON UNIT   1016 AT TIME STEP      2, STRESS PERIOD     16

 HEAD WILL BE SAVED ON UNIT 1017 AT END OF TIME STEP    2, STRESS PERIOD   16


  VOLUME BUDGET FOR ENTIRE MODEL AT END OF TIME STEP    2, STRESS PERIOD  16
  ---------------------------------------------------------------------------------------------------

     CUMULATIVE VOLUME      L**3       RATES FOR THIS TIME STEP      L**3/T          PACKAGE NAME    
     ------------------                 ------------------------                     ----------------

           IN:                                      IN:
           ---                                      ---
              STO-SS =          18.7522                STO-SS =       7.7193E-02     STORAGE         
              STO-SY =       11902.8223                STO-SY =          47.2554     STORAGE         
                 RCH =       75821.1143                   RCH =         143.0141     RCHA            
                 CHD =          58.2744                   CHD =           0.0000     CHD             

            TOTAL IN =       87800.9631              TOTAL IN =         190.3466

          OUT:                                     OUT:
          ----                                     ----
              STO-SS =          16.7958                STO-SS =       5.1629E-02     STORAGE         
              STO-SY =       10823.5615                STO-SY =          36.4611     STORAGE         
                 RCH =           0.0000                   RCH =           0.0000     RCHA            
                 CHD =       76961.1146                   CHD =         153.8317     CHD             

           TOTAL OUT =       87801.4719             TOTAL OUT =         190.3445

            IN - OUT =          -0.5088              IN - OUT =       2.1646E-03

 PERCENT DISCREPANCY =          -0.00     PERCENT DISCREPANCY =           0.00




         TIME SUMMARY AT END OF TIME STEP    2 IN STRESS PERIOD   16
                    SECONDS     MINUTES      HOURS       DAYS        YEARS
                    -----------------------------------------------------------
   TIME STEP LENGTH 2.59200E+05  4320.0      72.000      3.0000     8.21355E-03
 STRESS PERIOD TIME 5.18400E+05  8640.0      144.00      6.0000     1.64271E-02
         TOTAL TIME 3.68928E+07 6.14880E+05  10248.      427.00      1.1691    
 UBDSV1 SAVING           STO-SS ON UNIT   1016 AT TIME STEP      3, STRESS PERIOD     16
 UBDSV1 SAVING           STO-SY ON UNIT   1016 AT TIME STEP      3, STRESS PERIOD     16
 UBDSV1 SAVING     FLOW-JA-FACE ON UNIT   1016 AT TIME STEP      3, STRESS PERIOD     16
 UBDSV06 SAVING              RCH IN MODEL TEST_TRANS       PACKAGE TEST_TRANS      CONNECTED TO MODEL TEST_TRANS       PACKAGE RCHA             ON UNIT   1016 AT TIME STEP      3, STRESS PERIOD     16
 UBDSV06 SAVING              CHD IN MODEL TEST_TRANS       PACKAGE TEST_TRANS      CONNECTED TO MODEL TEST_TRANS       PACKAGE CHD              ON UNIT   1016 AT TIME STEP      3, STRESS PERIOD     16

 HEAD WILL BE SAVED ON UNIT 1017 AT END OF TIME STEP    3, STRESS PERIOD   16


  VOLUME BUDGET FOR ENTIRE MODEL AT END OF TIME STEP    3, STRESS PERIOD  16
  ---------------------------------------------------------------------------------------------------

     CUMULATIVE VOLUME      L**3       RATES FOR THIS TIME STEP      L**3/T          PACKAGE NAME    
     ------------------                 ------------------------                     ----------------

           IN:                                      IN:
           ---                                      ---
              STO-SS =          18.9682                STO-SS =       7.2004E-02     STORAGE         
              STO-SY =       12034.8346                STO-SY =          44.0041     STORAGE         
                 RCH =       76250.1565                   RCH =         143.0141     RCHA            
                 CHD =          58.2744                   CHD =           0.0000     CHD             

            TOTAL IN =       88362.2337              TOTAL IN =         187.0902

          OUT:                                     OUT:
          ----                                     ----
              STO-SS =          16.8891                STO-SS =       3.1104E-02     STORAGE         
              STO-SY =       10888.7427                STO-SY =          21.7271     STORAGE         
                 RCH =           0.0000                   RCH =           0.0000     RCHA            
                 CHD =       77457.1067                   CHD =         165.3307     CHD             

           TOTAL OUT =       88362.7385             TOTAL OUT =         187.0889

            IN - OUT =          -0.5049              IN - OUT =       1.3042E-03

 PERCENT DISCREPANCY =          -0.00     PERCENT DISCREPANCY =           0.00




         TIME SUMMARY AT END OF TIME STEP    3 IN STRESS PERIOD   16
                    SECONDS     MINUTES      HOURS       DAYS        YEARS
                    -----------------------------------------------------------
   TIME STEP LENGTH 2.59200E+05  4320.0      72.000      3.0000     8.21355E-03
 STRESS PERIOD TIME 7.77600E+05  12960.      216.00      9.0000     2.46407E-02
         TOTAL TIME 3.71520E+07 6.19200E+05  10320.      430.00      1.1773    
 UBDSV1 SAVING           STO-SS ON UNIT   1016 AT TIME STEP      4, STRESS PERIOD     16
 UBDSV1 SAVING           STO-SY ON UNIT   1016 AT TIME STEP      4, STRESS PERIOD     16
 UBDSV1 SAVING     FLOW-JA-FACE ON UNIT   1016 AT TIME STEP      4, STRESS PERIOD     16
 UBDSV06 SAVING              RCH IN MODEL TEST_TRANS       PACKAGE TEST_TRANS      CONNECTED TO MODEL TEST_TRANS       PACKAGE RCHA             ON UNIT   1016 AT TIME STEP      4, STRESS PERIOD     16
 UBDSV06 SAVING              CHD IN MODEL TEST_TRANS       PACKAGE TEST_TRANS      CONNECTED TO MODEL TEST_TRANS       PACKAGE CHD              ON UNIT   1016 AT TIME STEP      4, STRESS PERIOD     16

 HEAD WILL BE SAVED ON UNIT 1017 AT END OF TIME STEP    4, STRESS PERIOD   16


  VOLUME BUDGET FOR ENTIRE MODEL AT END OF TIME STEP    4, STRESS PERIOD  16
  ---------------------------------------------------------------------------------------------------

     CUMULATIVE VOLUME      L**3       RATES FOR THIS TIME STEP      L**3/T          PACKAGE NAME    
     ------------------                 ------------------------                     ----------------

           IN:                                      IN:
           ---                                      ---
              STO-SS =          19.1721                STO-SS =       6.7983E-02     STORAGE         
              STO-SY =       12159.3801                STO-SY =          41.5152     STORAGE         
                 RCH =       76679.1987                   RCH =         143.0141     RCHA            
                 CHD =          58.2744                   CHD =           0.0000     CHD             

            TOTAL IN =       88916.0253              TOTAL IN =         184.5972

          OUT:                                     OUT:
          ----                                     ----
              STO-SS =          16.9484                STO-SS =       1.9765E-02     STORAGE         
              STO-SY =       10929.9023                STO-SY =          13.7199     STORAGE         
                 RCH =           0.0000                   RCH =           0.0000     RCHA            
                 CHD =       77969.6799                   CHD =         170.8577     CHD             

           TOTAL OUT =       88916.5306             TOTAL OUT =         184.5974

            IN - OUT =          -0.5053              IN - OUT =      -1.4651E-04

 PERCENT DISCREPANCY =          -0.00     PERCENT DISCREPANCY =          -0.00




         TIME SUMMARY AT END OF TIME STEP    4 IN STRESS PERIOD   16
                    SECONDS     MINUTES      HOURS       DAYS        YEARS
                    -----------------------------------------------------------
   TIME STEP LENGTH 2.59200E+05  4320.0      72.000      3.0000     8.21355E-03
 STRESS PERIOD TIME 1.03680E+06  17280.      288.00      12.000     3.28542E-02
         TOTAL TIME 3.74112E+07 6.23520E+05  10392.      433.00      1.1855    
 UBDSV1 SAVING           STO-SS ON UNIT   1016 AT TIME STEP      5, STRESS PERIOD     16
 UBDSV1 SAVING           STO-SY ON UNIT   1016 AT TIME STEP      5, STRESS PERIOD     16
 UBDSV1 SAVING     FLOW-JA-FACE ON UNIT   1016 AT TIME STEP      5, STRESS PERIOD     16
 UBDSV06 SAVING              RCH IN MODEL TEST_TRANS       PACKAGE TEST_TRANS      CONNECTED TO MODEL TEST_TRANS       PACKAGE RCHA             ON UNIT   1016 AT TIME STEP      5, STRESS PERIOD     16
 UBDSV06 SAVING              CHD IN MODEL TEST_TRANS       PACKAGE TEST_TRANS      CONNECTED TO MODEL TEST_TRANS       PACKAGE CHD              ON UNIT   1016 AT TIME STEP      5, STRESS PERIOD     16

 HEAD WILL BE SAVED ON UNIT 1017 AT END OF TIME STEP    5, STRESS PERIOD   16


  VOLUME BUDGET FOR ENTIRE MODEL AT END OF TIME STEP    5, STRESS PERIOD  16
  ---------------------------------------------------------------------------------------------------

     CUMULATIVE VOLUME      L**3       RATES FOR THIS TIME STEP      L**3/T          PACKAGE NAME    
     ------------------                 ------------------------                     ----------------

           IN:                                      IN:
           ---                                      ---
              STO-SS =          19.3665                STO-SS =       6.4803E-02     STORAGE         
              STO-SY =       12278.0814                STO-SY =          39.5671     STORAGE         
                 RCH =       77108.2410                   RCH =         143.0141     RCHA            
                 CHD =          58.2744                   CHD =           0.0000     CHD             

            TOTAL IN =       89463.9633              TOTAL IN =         182.6460

          OUT:                                     OUT:
          ----                                     ----
              STO-SS =          16.9862                STO-SS =       1.2612E-02     STORAGE         
              STO-SY =       10956.0848                STO-SY =           8.7275     STORAGE         
                 RCH =           0.0000                   RCH =           0.0000     RCHA            
                 CHD =       78491.3984                   CHD =         173.9062     CHD             

           TOTAL OUT =       89464.4694             TOTAL OUT =         182.6463

            IN - OUT =          -0.5061              IN - OUT =      -2.7024E-04

 PERCENT DISCREPANCY =          -0.00     PERCENT DISCREPANCY =          -0.00




         TIME SUMMARY AT END OF TIME STEP    5 IN STRESS PERIOD   16
                    SECONDS     MINUTES      HOURS       DAYS        YEARS
                    -----------------------------------------------------------
   TIME STEP LENGTH 2.59200E+05  4320.0      72.000      3.0000     8.21355E-03
 STRESS PERIOD TIME 1.29600E+06  21600.      360.00      15.000     4.10678E-02
         TOTAL TIME 3.76704E+07 6.27840E+05  10464.      436.00      1.1937    
 UBDSV1 SAVING           STO-SS ON UNIT   1016 AT TIME STEP      6, STRESS PERIOD     16
 UBDSV1 SAVING           STO-SY ON UNIT   1016 AT TIME STEP      6, STRESS PERIOD     16
 UBDSV1 SAVING     FLOW-JA-FACE ON UNIT   1016 AT TIME STEP      6, STRESS PERIOD     16
 UBDSV06 SAVING              RCH IN MODEL TEST_TRANS       PACKAGE TEST_TRANS      CONNECTED TO MODEL TEST_TRANS       PACKAGE RCHA             ON UNIT   1016 AT TIME STEP      6, STRESS PERIOD     16
 UBDSV06 SAVING              CHD IN MODEL TEST_TRANS       PACKAGE TEST_TRANS      CONNECTED TO MODEL TEST_TRANS       PACKAGE CHD              ON UNIT   1016 AT TIME STEP      6, STRESS PERIOD     16

 HEAD WILL BE SAVED ON UNIT 1017 AT END OF TIME STEP    6, STRESS PERIOD   16


  VOLUME BUDGET FOR ENTIRE MODEL AT END OF TIME STEP    6, STRESS PERIOD  16
  ---------------------------------------------------------------------------------------------------

     CUMULATIVE VOLUME      L**3       RATES FOR THIS TIME STEP      L**3/T          PACKAGE NAME    
     ------------------                 ------------------------                     ----------------

           IN:                                      IN:
           ---                                      ---
              STO-SS =          19.5533                STO-SS =       6.2272E-02     STORAGE         
              STO-SY =       12392.1804                STO-SY =          38.0330     STORAGE         
                 RCH =       77537.2832                   RCH =         143.0141     RCHA            
                 CHD =          58.2744                   CHD =           0.0000     CHD             

            TOTAL IN =       90007.2913              TOTAL IN =         181.1093

          OUT:                                     OUT:
          ----                                     ----
              STO-SS =          17.0096                STO-SS =       7.7992E-03     STORAGE         
              STO-SY =       10972.2670                STO-SY =           5.3941     STORAGE         
                 RCH =           0.0000                   RCH =           0.0000     RCHA            
                 CHD =       79018.5223                   CHD =         175.7079     CHD             

           TOTAL OUT =       90007.7989             TOTAL OUT =         181.1098

            IN - OUT =          -0.5076              IN - OUT =      -4.7711E-04

 PERCENT DISCREPANCY =          -0.00     PERCENT DISCREPANCY =          -0.00




         TIME SUMMARY AT END OF TIME STEP    6 IN STRESS PERIOD   16
                    SECONDS     MINUTES      HOURS       DAYS        YEARS
                    -----------------------------------------------------------
   TIME STEP LENGTH 2.59200E+05  4320.0      72.000      3.0000     8.21355E-03
 STRESS PERIOD TIME 1.55520E+06  25920.      432.00      18.000     4.92813E-02
         TOTAL TIME 3.79296E+07 6.32160E+05  10536.      439.00      1.2019    
 UBDSV1 SAVING           STO-SS ON UNIT   1016 AT TIME STEP      7, STRESS PERIOD     16
 UBDSV1 SAVING           STO-SY ON UNIT   1016 AT TIME STEP      7, STRESS PERIOD     16
 UBDSV1 SAVING     FLOW-JA-FACE ON UNIT   1016 AT TIME STEP      7, STRESS PERIOD     16
 UBDSV06 SAVING              RCH IN MODEL TEST_TRANS       PACKAGE TEST_TRANS      CONNECTED TO MODEL TEST_TRANS       PACKAGE RCHA             ON UNIT   1016 AT TIME STEP      7, STRESS PERIOD     16
 UBDSV06 SAVING              CHD IN MODEL TEST_TRANS       PACKAGE TEST_TRANS      CONNECTED TO MODEL TEST_TRANS       PACKAGE CHD              ON UNIT   1016 AT TIME STEP      7, STRESS PERIOD     16

 HEAD WILL BE SAVED ON UNIT 1017 AT END OF TIME STEP    7, STRESS PERIOD   16


  VOLUME BUDGET FOR ENTIRE MODEL AT END OF TIME STEP    7, STRESS PERIOD  16
  ---------------------------------------------------------------------------------------------------

     CUMULATIVE VOLUME      L**3       RATES FOR THIS TIME STEP      L**3/T          PACKAGE NAME    
     ------------------                 ------------------------                     ----------------

           IN:                                      IN:
           ---                                      ---
              STO-SS =          19.7344                STO-SS =       6.0349E-02     STORAGE         
              STO-SY =       12502.8377                STO-SY =          36.8858     STORAGE         
                 RCH =       77966.3255                   RCH =         143.0141     RCHA            
                 CHD =          58.2744                   CHD =           0.0000     CHD             

            TOTAL IN =       90547.1719              TOTAL IN =         179.9602

          OUT:                                     OUT:
          ----                                     ----
              STO-SS =          17.0233                STO-SS =       4.5630E-03     STORAGE         
              STO-SY =       10981.7459                STO-SY =           3.1596     STORAGE         
                 RCH =           0.0000                   RCH =           0.0000     RCHA            
                 CHD =       79548.9094                   CHD =         176.7957     CHD             

           TOTAL OUT =       90547.6786             TOTAL OUT =         179.9599

            IN - OUT =          -0.5066              IN - OUT =       3.1898E-04

 PERCENT DISCREPANCY =          -0.00     PERCENT DISCREPANCY =           0.00




         TIME SUMMARY AT END OF TIME STEP    7 IN STRESS PERIOD   16
                    SECONDS     MINUTES      HOURS       DAYS        YEARS
                    -----------------------------------------------------------
   TIME STEP LENGTH 2.59200E+05  4320.0      72.000      3.0000     8.21355E-03
 STRESS PERIOD TIME 1.81440E+06  30240.      504.00      21.000     5.74949E-02
         TOTAL TIME 3.81888E+07 6.36480E+05  10608.      442.00      1.2101    
 UBDSV1 SAVING           STO-SS ON UNIT   1016 AT TIME STEP      8, STRESS PERIOD     16
 UBDSV1 SAVING           STO-SY ON UNIT   1016 AT TIME STEP      8, STRESS PERIOD     16
 UBDSV1 SAVING     FLOW-JA-FACE ON UNIT   1016 AT TIME STEP      8, STRESS PERIOD     16
 UBDSV06 SAVING              RCH IN MODEL TEST_TRANS       PACKAGE TEST_TRANS      CONNECTED TO MODEL TEST_TRANS       PACKAGE RCHA             ON UNIT   1016 AT TIME STEP      8, STRESS PERIOD     16
 UBDSV06 SAVING              CHD IN MODEL TEST_TRANS       PACKAGE TEST_TRANS      CONNECTED TO MODEL TEST_TRANS       PACKAGE CHD              ON UNIT   1016 AT TIME STEP      8, STRESS PERIOD     16

 HEAD WILL BE SAVED ON UNIT 1017 AT END OF TIME STEP    8, STRESS PERIOD   16


  VOLUME BUDGET FOR ENTIRE MODEL AT END OF TIME STEP    8, STRESS PERIOD  16
  ---------------------------------------------------------------------------------------------------

     CUMULATIVE VOLUME      L**3       RATES FOR THIS TIME STEP      L**3/T          PACKAGE NAME    
     ------------------                 ------------------------                     ----------------

           IN:                                      IN:
           ---                                      ---
              STO-SS =          19.9109                STO-SS =       5.8853E-02     STORAGE         
              STO-SY =       12610.8638                STO-SY =          36.0087     STORAGE         
                 RCH =       78395.3677                   RCH =         143.0141     RCHA            
                 CHD =          58.2744                   CHD =           0.0000     CHD             

            TOTAL IN =       91084.4168              TOTAL IN =         179.0816

          OUT:                                     OUT:
          ----                                     ----
              STO-SS =          17.0304                STO-SS =       2.3605E-03     STORAGE         
              STO-SY =       10986.6685                STO-SY =           1.6409     STORAGE         
                 RCH =           0.0000                   RCH =           0.0000     RCHA            
                 CHD =       80081.2219                   CHD =         177.4375     CHD             

           TOTAL OUT =       91084.9208             TOTAL OUT =         179.0808

            IN - OUT =          -0.5040              IN - OUT =       8.7027E-04

 PERCENT DISCREPANCY =          -0.00     PERCENT DISCREPANCY =           0.00




         TIME SUMMARY AT END OF TIME STEP    8 IN STRESS PERIOD   16
                    SECONDS     MINUTES      HOURS       DAYS        YEARS
                    -----------------------------------------------------------
   TIME STEP LENGTH 2.59200E+05  4320.0      72.000      3.0000     8.21355E-03
 STRESS PERIOD TIME 2.07360E+06  34560.      576.00      24.000     6.57084E-02
         TOTAL TIME 3.84480E+07 6.40800E+05  10680.      445.00      1.2183    
 UBDSV1 SAVING           STO-SS ON UNIT   1016 AT TIME STEP      9, STRESS PERIOD     16
 UBDSV1 SAVING           STO-SY ON UNIT   1016 AT TIME STEP      9, STRESS PERIOD     16
 UBDSV1 SAVING     FLOW-JA-FACE ON UNIT   1016 AT TIME STEP      9, STRESS PERIOD     16
 UBDSV06 SAVING              RCH IN MODEL TEST_TRANS       PACKAGE TEST_TRANS      CONNECTED TO MODEL TEST_TRANS       PACKAGE RCHA             ON UNIT   1016 AT TIME STEP      9, STRESS PERIOD     16
 UBDSV06 SAVING              CHD IN MODEL TEST_TRANS       PACKAGE TEST_TRANS      CONNECTED TO MODEL TEST_TRANS       PACKAGE CHD              ON UNIT   1016 AT TIME STEP      9, STRESS PERIOD     16

 HEAD WILL BE SAVED ON UNIT 1017 AT END OF TIME STEP    9, STRESS PERIOD   16


  VOLUME BUDGET FOR ENTIRE MODEL AT END OF TIME STEP    9, STRESS PERIOD  16
  ---------------------------------------------------------------------------------------------------

     CUMULATIVE VOLUME      L**3       RATES FOR THIS TIME STEP      L**3/T          PACKAGE NAME    
     ------------------                 ------------------------                     ----------------

           IN:                                      IN:
           ---                                      ---
              STO-SS =          20.0843                STO-SS =       5.7773E-02     STORAGE         
              STO-SY =       12717.0574                STO-SY =          35.3979     STORAGE         
                 RCH =       78824.4099                   RCH =         143.0141     RCHA            
                 CHD =          58.2744                   CHD =           0.0000     CHD             

            TOTAL IN =       91619.8260              TOTAL IN =         178.4697

          OUT:                                     OUT:
          ----                                     ----
              STO-SS =          17.0333                STO-SS =       9.7775E-04     STORAGE         
              STO-SY =       10988.7212                STO-SY =           0.6842     STORAGE         
                 RCH =           0.0000                   RCH =           0.0000     RCHA            
                 CHD =       80614.5717                   CHD =         177.7832     CHD             

           TOTAL OUT =       91620.3262             TOTAL OUT =         178.4685

            IN - OUT =          -0.5002              IN - OUT =       1.2680E-03

 PERCENT DISCREPANCY =          -0.00     PERCENT DISCREPANCY =           0.00




         TIME SUMMARY AT END OF TIME STEP    9 IN STRESS PERIOD   16
                    SECONDS     MINUTES      HOURS       DAYS        YEARS
                    -----------------------------------------------------------
   TIME STEP LENGTH 2.59200E+05  4320.0      72.000      3.0000     8.21355E-03
 STRESS PERIOD TIME 2.33280E+06  38880.      648.00      27.000     7.39220E-02
         TOTAL TIME 3.87072E+07 6.45120E+05  10752.      448.00      1.2266    
 UBDSV1 SAVING           STO-SS ON UNIT   1016 AT TIME STEP     10, STRESS PERIOD     16
 UBDSV1 SAVING           STO-SY ON UNIT   1016 AT TIME STEP     10, STRESS PERIOD     16
 UBDSV1 SAVING     FLOW-JA-FACE ON UNIT   1016 AT TIME STEP     10, STRESS PERIOD     16
 UBDSV06 SAVING              RCH IN MODEL TEST_TRANS       PACKAGE TEST_TRANS      CONNECTED TO MODEL TEST_TRANS       PACKAGE RCHA             ON UNIT   1016 AT TIME STEP     10, STRESS PERIOD     16
 UBDSV06 SAVING              CHD IN MODEL TEST_TRANS       PACKAGE TEST_TRANS      CONNECTED TO MODEL TEST_TRANS       PACKAGE CHD              ON UNIT   1016 AT TIME STEP     10, STRESS PERIOD     16

 HEAD WILL BE SAVED ON UNIT 1017 AT END OF TIME STEP   10, STRESS PERIOD   16


  VOLUME BUDGET FOR ENTIRE MODEL AT END OF TIME STEP   10, STRESS PERIOD  16
  ---------------------------------------------------------------------------------------------------

     CUMULATIVE VOLUME      L**3       RATES FOR THIS TIME STEP      L**3/T          PACKAGE NAME    
     ------------------                 ------------------------                     ----------------

           IN:                                      IN:
           ---                                      ---
              STO-SS =          20.2554                STO-SS =       5.7061E-02     STORAGE         
              STO-SY =       12822.1273                STO-SY =          35.0233     STORAGE         
                 RCH =       79253.4522                   RCH =         143.0141     RCHA            
                 CHD =          58.2744                   CHD =           0.0000     CHD             

            TOTAL IN =       92154.1093              TOTAL IN =         178.0945

          OUT:                                     OUT:
          ----                                     ----
              STO-SS =          17.0340                STO-SS =       2.2549E-04     STORAGE         
              STO-SY =       10989.2008                STO-SY =           0.1599     STORAGE         
                 RCH =           0.0000                   RCH =           0.0000     RCHA            
                 CHD =       81148.3549                   CHD =         177.9278     CHD             

           TOTAL OUT =       92154.5897             TOTAL OUT =         178.0878

            IN - OUT =          -0.4804              IN - OUT =       6.6059E-03

 PERCENT DISCREPANCY =          -0.00     PERCENT DISCREPANCY =           0.00




         TIME SUMMARY AT END OF TIME STEP   10 IN STRESS PERIOD   16
                    SECONDS     MINUTES      HOURS       DAYS        YEARS
                    -----------------------------------------------------------
   TIME STEP LENGTH 2.59200E+05  4320.0      72.000      3.0000     8.21355E-03
 STRESS PERIOD TIME 2.59200E+06  43200.      720.00      30.000     8.21355E-02
         TOTAL TIME 3.89664E+07 6.49440E+05  10824.      451.00      1.2348    

 OUTPUT CONTROL FOR STRESS PERIOD 17 IS REPEATED USING SETTINGS FROM A PREVIOUS STRESS PERIOD.


 STRESS PERIOD 17 IS TRANSIENT


                 RECHARGE =  0.1232880E-02
 UBDSV1 SAVING           STO-SS ON UNIT   1016 AT TIME STEP      1, STRESS PERIOD     17
 UBDSV1 SAVING           STO-SY ON UNIT   1016 AT TIME STEP      1, STRESS PERIOD     17
 UBDSV1 SAVING     FLOW-JA-FACE ON UNIT   1016 AT TIME STEP      1, STRESS PERIOD     17
 UBDSV06 SAVING              RCH IN MODEL TEST_TRANS       PACKAGE TEST_TRANS      CONNECTED TO MODEL TEST_TRANS       PACKAGE RCHA             ON UNIT   1016 AT TIME STEP      1, STRESS PERIOD     17
 UBDSV06 SAVING              CHD IN MODEL TEST_TRANS       PACKAGE TEST_TRANS      CONNECTED TO MODEL TEST_TRANS       PACKAGE CHD              ON UNIT   1016 AT TIME STEP      1, STRESS PERIOD     17

 HEAD WILL BE SAVED ON UNIT 1017 AT END OF TIME STEP    1, STRESS PERIOD   17


  VOLUME BUDGET FOR ENTIRE MODEL AT END OF TIME STEP    1, STRESS PERIOD  17
  ---------------------------------------------------------------------------------------------------

     CUMULATIVE VOLUME      L**3       RATES FOR THIS TIME STEP      L**3/T          PACKAGE NAME    
     ------------------                 ------------------------                     ----------------

           IN:                                      IN:
           ---                                      ---
              STO-SS =          20.5485                STO-SS =       9.7670E-02     STORAGE         
              STO-SY =       13002.6217                STO-SY =          60.1648     STORAGE         
                 RCH =       79575.2339                   RCH =         107.2606     RCHA            
                 CHD =          58.2744                   CHD =           0.0000     CHD             

            TOTAL IN =       92656.6784              TOTAL IN =         167.5230

          OUT:                                     OUT:
          ----                                     ----
              STO-SS =          17.2101                STO-SS =       5.8691E-02     STORAGE         
              STO-SY =       11114.1795                STO-SY =          41.6596     STORAGE         
                 RCH =           0.0000                   RCH =           0.0000     RCHA            
                 CHD =       81525.7630                   CHD =         125.8027     CHD             

           TOTAL OUT =       92657.1525             TOTAL OUT =         167.5209

            IN - OUT =          -0.4741              IN - OUT =       2.0778E-03

 PERCENT DISCREPANCY =          -0.00     PERCENT DISCREPANCY =           0.00




         TIME SUMMARY AT END OF TIME STEP    1 IN STRESS PERIOD   17
                    SECONDS     MINUTES      HOURS       DAYS        YEARS
                    -----------------------------------------------------------
   TIME STEP LENGTH 2.59200E+05  4320.0      72.000      3.0000     8.21355E-03
 STRESS PERIOD TIME 2.59200E+05  4320.0      72.000      3.0000     8.21355E-03
         TOTAL TIME 3.92256E+07 6.53760E+05  10896.      454.00      1.2430    
 UBDSV1 SAVING           STO-SS ON UNIT   1016 AT TIME STEP      2, STRESS PERIOD     17
 UBDSV1 SAVING           STO-SY ON UNIT   1016 AT TIME STEP      2, STRESS PERIOD     17
 UBDSV1 SAVING     FLOW-JA-FACE ON UNIT   1016 AT TIME STEP      2, STRESS PERIOD     17
 UBDSV06 SAVING              RCH IN MODEL TEST_TRANS       PACKAGE TEST_TRANS      CONNECTED TO MODEL TEST_TRANS       PACKAGE RCHA             ON UNIT   1016 AT TIME STEP      2, STRESS PERIOD     17
 UBDSV06 SAVING              CHD IN MODEL TEST_TRANS       PACKAGE TEST_TRANS      CONNECTED TO MODEL TEST_TRANS       PACKAGE CHD              ON UNIT   1016 AT TIME STEP      2, STRESS PERIOD     17

 HEAD WILL BE SAVED ON UNIT 1017 AT END OF TIME STEP    2, STRESS PERIOD   17


  VOLUME BUDGET FOR ENTIRE MODEL AT END OF TIME STEP    2, STRESS PERIOD  17
  ---------------------------------------------------------------------------------------------------

     CUMULATIVE VOLUME      L**3       RATES FOR THIS TIME STEP      L**3/T          PACKAGE NAME    
     ------------------                 ------------------------                     ----------------

           IN:                                      IN:
           ---                                      ---
              STO-SS =          20.8250                STO-SS =       9.2177E-02     STORAGE         
              STO-SY =       13172.7615                STO-SY =          56.7132     STORAGE         
                 RCH =       79897.0155                   RCH =         107.2606     RCHA            
                 CHD =          58.2744                   CHD =           0.0000     CHD             

            TOTAL IN =       93148.8763              TOTAL IN =         164.0660

          OUT:                                     OUT:
          ----                                     ----
              STO-SS =          17.2976                STO-SS =       2.9166E-02     STORAGE         
              STO-SY =       11175.4123                STO-SY =          20.4109     STORAGE         
                 RCH =           0.0000                   RCH =           0.0000     RCHA            
                 CHD =       81956.6260                   CHD =         143.6210     CHD             

           TOTAL OUT =       93149.3359             TOTAL OUT =         164.0611

            IN - OUT =          -0.4595              IN - OUT =       4.8718E-03

 PERCENT DISCREPANCY =          -0.00     PERCENT DISCREPANCY =           0.00




         TIME SUMMARY AT END OF TIME STEP    2 IN STRESS PERIOD   17
                    SECONDS     MINUTES      HOURS       DAYS        YEARS
                    -----------------------------------------------------------
   TIME STEP LENGTH 2.59200E+05  4320.0      72.000      3.0000     8.21355E-03
 STRESS PERIOD TIME 5.18400E+05  8640.0      144.00      6.0000     1.64271E-02
         TOTAL TIME 3.94848E+07 6.58080E+05  10968.      457.00      1.2512    
 UBDSV1 SAVING           STO-SS ON UNIT   1016 AT TIME STEP      3, STRESS PERIOD     17
 UBDSV1 SAVING           STO-SY ON UNIT   1016 AT TIME STEP      3, STRESS PERIOD     17
 UBDSV1 SAVING     FLOW-JA-FACE ON UNIT   1016 AT TIME STEP      3, STRESS PERIOD     17
 UBDSV06 SAVING              RCH IN MODEL TEST_TRANS       PACKAGE TEST_TRANS      CONNECTED TO MODEL TEST_TRANS       PACKAGE RCHA             ON UNIT   1016 AT TIME STEP      3, STRESS PERIOD     17
 UBDSV06 SAVING              CHD IN MODEL TEST_TRANS       PACKAGE TEST_TRANS      CONNECTED TO MODEL TEST_TRANS       PACKAGE CHD              ON UNIT   1016 AT TIME STEP      3, STRESS PERIOD     17

 HEAD WILL BE SAVED ON UNIT 1017 AT END OF TIME STEP    3, STRESS PERIOD   17


  VOLUME BUDGET FOR ENTIRE MODEL AT END OF TIME STEP    3, STRESS PERIOD  17
  ---------------------------------------------------------------------------------------------------

     CUMULATIVE VOLUME      L**3       RATES FOR THIS TIME STEP      L**3/T          PACKAGE NAME    
     ------------------                 ------------------------                     ----------------

           IN:                                      IN:
           ---                                      ---
              STO-SS =          21.0886                STO-SS =       8.7880E-02     STORAGE         
              STO-SY =       13334.9150                STO-SY =          54.0512     STORAGE         
                 RCH =       80218.7972                   RCH =         107.2606     RCHA            
                 CHD =          58.2744                   CHD =           0.0000     CHD             

            TOTAL IN =       93633.0751              TOTAL IN =         161.3996

          OUT:                                     OUT:
          ----                                     ----
              STO-SS =          17.3460                STO-SS =       1.6140E-02     STORAGE         
              STO-SY =       11209.0626                STO-SY =          11.2168     STORAGE         
                 RCH =           0.0000                   RCH =           0.0000     RCHA            
                 CHD =       82407.1217                   CHD =         150.1652     CHD             

           TOTAL OUT =       93633.5302             TOTAL OUT =         161.3981

            IN - OUT =          -0.4551              IN - OUT =       1.4770E-03

 PERCENT DISCREPANCY =          -0.00     PERCENT DISCREPANCY =           0.00




         TIME SUMMARY AT END OF TIME STEP    3 IN STRESS PERIOD   17
                    SECONDS     MINUTES      HOURS       DAYS        YEARS
                    -----------------------------------------------------------
   TIME STEP LENGTH 2.59200E+05  4320.0      72.000      3.0000     8.21355E-03
 STRESS PERIOD TIME 7.77600E+05  12960.      216.00      9.0000     2.46407E-02
         TOTAL TIME 3.97440E+07 6.62400E+05  11040.      460.00      1.2594    
 UBDSV1 SAVING           STO-SS ON UNIT   1016 AT TIME STEP      4, STRESS PERIOD     17
 UBDSV1 SAVING           STO-SY ON UNIT   1016 AT TIME STEP      4, STRESS PERIOD     17
 UBDSV1 SAVING     FLOW-JA-FACE ON UNIT   1016 AT TIME STEP      4, STRESS PERIOD     17
 UBDSV06 SAVING              RCH IN MODEL TEST_TRANS       PACKAGE TEST_TRANS      CONNECTED TO MODEL TEST_TRANS       PACKAGE RCHA             ON UNIT   1016 AT TIME STEP      4, STRESS PERIOD     17
 UBDSV06 SAVING              CHD IN MODEL TEST_TRANS       PACKAGE TEST_TRANS      CONNECTED TO MODEL TEST_TRANS       PACKAGE CHD              ON UNIT   1016 AT TIME STEP      4, STRESS PERIOD     17

 HEAD WILL BE SAVED ON UNIT 1017 AT END OF TIME STEP    4, STRESS PERIOD   17


  VOLUME BUDGET FOR ENTIRE MODEL AT END OF TIME STEP    4, STRESS PERIOD  17
  ---------------------------------------------------------------------------------------------------

     CUMULATIVE VOLUME      L**3       RATES FOR THIS TIME STEP      L**3/T          PACKAGE NAME    
     ------------------                 ------------------------                     ----------------

           IN:                                      IN:
           ---                                      ---
              STO-SS =          21.3426                STO-SS =       8.4643E-02     STORAGE         
              STO-SY =       13491.1542                STO-SY =          52.0797     STORAGE         
                 RCH =       80540.5789                   RCH =         107.2606     RCHA            
                 CHD =          58.2744                   CHD =           0.0000     CHD             

            TOTAL IN =       94111.3500              TOTAL IN =         159.4249

          OUT:                                     OUT:
          ----                                     ----
              STO-SS =          17.3730                STO-SS =       9.0193E-03     STORAGE         
              STO-SY =       11227.8119                STO-SY =           6.2498     STORAGE         
                 RCH =           0.0000                   RCH =           0.0000     RCHA            
                 CHD =       82866.6180                   CHD =         153.1654     CHD             

           TOTAL OUT =       94111.8029             TOTAL OUT =         159.4242

            IN - OUT =          -0.4529              IN - OUT =       7.1962E-04

 PERCENT DISCREPANCY =          -0.00     PERCENT DISCREPANCY =           0.00




         TIME SUMMARY AT END OF TIME STEP    4 IN STRESS PERIOD   17
                    SECONDS     MINUTES      HOURS       DAYS        YEARS
                    -----------------------------------------------------------
   TIME STEP LENGTH 2.59200E+05  4320.0      72.000      3.0000     8.21355E-03
 STRESS PERIOD TIME 1.03680E+06  17280.      288.00      12.000     3.28542E-02
         TOTAL TIME 4.00032E+07 6.66720E+05  11112.      463.00      1.2676    
 UBDSV1 SAVING           STO-SS ON UNIT   1016 AT TIME STEP      5, STRESS PERIOD     17
 UBDSV1 SAVING           STO-SY ON UNIT   1016 AT TIME STEP      5, STRESS PERIOD     17
 UBDSV1 SAVING     FLOW-JA-FACE ON UNIT   1016 AT TIME STEP      5, STRESS PERIOD     17
 UBDSV06 SAVING              RCH IN MODEL TEST_TRANS       PACKAGE TEST_TRANS      CONNECTED TO MODEL TEST_TRANS       PACKAGE RCHA             ON UNIT   1016 AT TIME STEP      5, STRESS PERIOD     17
 UBDSV06 SAVING              CHD IN MODEL TEST_TRANS       PACKAGE TEST_TRANS      CONNECTED TO MODEL TEST_TRANS       PACKAGE CHD              ON UNIT   1016 AT TIME STEP      5, STRESS PERIOD     17

 HEAD WILL BE SAVED ON UNIT 1017 AT END OF TIME STEP    5, STRESS PERIOD   17


  VOLUME BUDGET FOR ENTIRE MODEL AT END OF TIME STEP    5, STRESS PERIOD  17
  ---------------------------------------------------------------------------------------------------

     CUMULATIVE VOLUME      L**3       RATES FOR THIS TIME STEP      L**3/T          PACKAGE NAME    
     ------------------                 ------------------------                     ----------------

           IN:                                      IN:
           ---                                      ---
              STO-SS =          21.5892                STO-SS =       8.2201E-02     STORAGE         
              STO-SY =       13643.0153                STO-SY =          50.6204     STORAGE         
                 RCH =       80862.3606                   RCH =         107.2606     RCHA            
                 CHD =          58.2744                   CHD =           0.0000     CHD             

            TOTAL IN =       94585.2394              TOTAL IN =         157.9631

          OUT:                                     OUT:
          ----                                     ----
              STO-SS =          17.3872                STO-SS =       4.7228E-03     STORAGE         
              STO-SY =       11237.6298                STO-SY =           3.2726     STORAGE         
                 RCH =           0.0000                   RCH =           0.0000     RCHA            
                 CHD =       83330.6714                   CHD =         154.6845     CHD             

           TOTAL OUT =       94585.6884             TOTAL OUT =         157.9618

            IN - OUT =          -0.4490              IN - OUT =       1.3119E-03

 PERCENT DISCREPANCY =          -0.00     PERCENT DISCREPANCY =           0.00




         TIME SUMMARY AT END OF TIME STEP    5 IN STRESS PERIOD   17
                    SECONDS     MINUTES      HOURS       DAYS        YEARS
                    -----------------------------------------------------------
   TIME STEP LENGTH 2.59200E+05  4320.0      72.000      3.0000     8.21355E-03
 STRESS PERIOD TIME 1.29600E+06  21600.      360.00      15.000     4.10678E-02
         TOTAL TIME 4.02624E+07 6.71040E+05  11184.      466.00      1.2758    
 UBDSV1 SAVING           STO-SS ON UNIT   1016 AT TIME STEP      6, STRESS PERIOD     17
 UBDSV1 SAVING           STO-SY ON UNIT   1016 AT TIME STEP      6, STRESS PERIOD     17
 UBDSV1 SAVING     FLOW-JA-FACE ON UNIT   1016 AT TIME STEP      6, STRESS PERIOD     17
 UBDSV06 SAVING              RCH IN MODEL TEST_TRANS       PACKAGE TEST_TRANS      CONNECTED TO MODEL TEST_TRANS       PACKAGE RCHA             ON UNIT   1016 AT TIME STEP      6, STRESS PERIOD     17
 UBDSV06 SAVING              CHD IN MODEL TEST_TRANS       PACKAGE TEST_TRANS      CONNECTED TO MODEL TEST_TRANS       PACKAGE CHD              ON UNIT   1016 AT TIME STEP      6, STRESS PERIOD     17

 HEAD WILL BE SAVED ON UNIT 1017 AT END OF TIME STEP    6, STRESS PERIOD   17


  VOLUME BUDGET FOR ENTIRE MODEL AT END OF TIME STEP    6, STRESS PERIOD  17
  ---------------------------------------------------------------------------------------------------

     CUMULATIVE VOLUME      L**3       RATES FOR THIS TIME STEP      L**3/T          PACKAGE NAME    
     ------------------                 ------------------------                     ----------------

           IN:                                      IN:
           ---                                      ---
              STO-SS =          21.8302                STO-SS =       8.0359E-02     STORAGE         
              STO-SY =       13791.6527                STO-SY =          49.5458     STORAGE         
                 RCH =       81184.1423                   RCH =         107.2606     RCHA            
                 CHD =          58.2744                   CHD =           0.0000     CHD             

            TOTAL IN =       95055.8995              TOTAL IN =         156.8867

          OUT:                                     OUT:
          ----                                     ----
              STO-SS =          17.3934                STO-SS =       2.0634E-03     STORAGE         
              STO-SY =       11241.9342                STO-SY =           1.4348     STORAGE         
                 RCH =           0.0000                   RCH =           0.0000     RCHA            
                 CHD =       83797.0157                   CHD =         155.4481     CHD             

           TOTAL OUT =       95056.3433             TOTAL OUT =         156.8850

            IN - OUT =          -0.4438              IN - OUT =       1.7427E-03

 PERCENT DISCREPANCY =          -0.00     PERCENT DISCREPANCY =           0.00




         TIME SUMMARY AT END OF TIME STEP    6 IN STRESS PERIOD   17
                    SECONDS     MINUTES      HOURS       DAYS        YEARS
                    -----------------------------------------------------------
   TIME STEP LENGTH 2.59200E+05  4320.0      72.000      3.0000     8.21355E-03
 STRESS PERIOD TIME 1.55520E+06  25920.      432.00      18.000     4.92813E-02
         TOTAL TIME 4.05216E+07 6.75360E+05  11256.      469.00      1.2841    
 UBDSV1 SAVING           STO-SS ON UNIT   1016 AT TIME STEP      7, STRESS PERIOD     17
 UBDSV1 SAVING           STO-SY ON UNIT   1016 AT TIME STEP      7, STRESS PERIOD     17
 UBDSV1 SAVING     FLOW-JA-FACE ON UNIT   1016 AT TIME STEP      7, STRESS PERIOD     17
 UBDSV06 SAVING              RCH IN MODEL TEST_TRANS       PACKAGE TEST_TRANS      CONNECTED TO MODEL TEST_TRANS       PACKAGE RCHA             ON UNIT   1016 AT TIME STEP      7, STRESS PERIOD     17
 UBDSV06 SAVING              CHD IN MODEL TEST_TRANS       PACKAGE TEST_TRANS      CONNECTED TO MODEL TEST_TRANS       PACKAGE CHD              ON UNIT   1016 AT TIME STEP      7, STRESS PERIOD     17

 HEAD WILL BE SAVED ON UNIT 1017 AT END OF TIME STEP    7, STRESS PERIOD   17


  VOLUME BUDGET FOR ENTIRE MODEL AT END OF TIME STEP    7, STRESS PERIOD  17
  ---------------------------------------------------------------------------------------------------

     CUMULATIVE VOLUME      L**3       RATES FOR THIS TIME STEP      L**3/T          PACKAGE NAME    
     ------------------                 ------------------------                     ----------------

           IN:                                      IN:
           ---                                      ---
              STO-SS =          22.0676                STO-SS =       7.9111E-02     STORAGE         
              STO-SY =       13938.2209                STO-SY =          48.8561     STORAGE         
                 RCH =       81505.9239                   RCH =         107.2606     RCHA            
                 CHD =          58.2744                   CHD =           0.0000     CHD             

            TOTAL IN =       95524.4868              TOTAL IN =         156.1957

          OUT:                                     OUT:
          ----                                     ----
              STO-SS =          17.3952                STO-SS =       6.0026E-04     STORAGE         
              STO-SY =       11243.1955                STO-SY =           0.4204     STORAGE         
                 RCH =           0.0000                   RCH =           0.0000     RCHA            
                 CHD =       84264.3338                   CHD =         155.7727     CHD             

           TOTAL OUT =       95524.9244             TOTAL OUT =         156.1937

            IN - OUT =          -0.4377              IN - OUT =       2.0328E-03

 PERCENT DISCREPANCY =          -0.00     PERCENT DISCREPANCY =           0.00




         TIME SUMMARY AT END OF TIME STEP    7 IN STRESS PERIOD   17
                    SECONDS     MINUTES      HOURS       DAYS        YEARS
                    -----------------------------------------------------------
   TIME STEP LENGTH 2.59200E+05  4320.0      72.000      3.0000     8.21355E-03
 STRESS PERIOD TIME 1.81440E+06  30240.      504.00      21.000     5.74949E-02
         TOTAL TIME 4.07808E+07 6.79680E+05  11328.      472.00      1.2923    
 UBDSV1 SAVING           STO-SS ON UNIT   1016 AT TIME STEP      8, STRESS PERIOD     17
 UBDSV1 SAVING           STO-SY ON UNIT   1016 AT TIME STEP      8, STRESS PERIOD     17
 UBDSV1 SAVING     FLOW-JA-FACE ON UNIT   1016 AT TIME STEP      8, STRESS PERIOD     17
 UBDSV06 SAVING              RCH IN MODEL TEST_TRANS       PACKAGE TEST_TRANS      CONNECTED TO MODEL TEST_TRANS       PACKAGE RCHA             ON UNIT   1016 AT TIME STEP      8, STRESS PERIOD     17
 UBDSV06 SAVING              CHD IN MODEL TEST_TRANS       PACKAGE TEST_TRANS      CONNECTED TO MODEL TEST_TRANS       PACKAGE CHD              ON UNIT   1016 AT TIME STEP      8, STRESS PERIOD     17

 HEAD WILL BE SAVED ON UNIT 1017 AT END OF TIME STEP    8, STRESS PERIOD   17


  VOLUME BUDGET FOR ENTIRE MODEL AT END OF TIME STEP    8, STRESS PERIOD  17
  ---------------------------------------------------------------------------------------------------

     CUMULATIVE VOLUME      L**3       RATES FOR THIS TIME STEP      L**3/T          PACKAGE NAME    
     ------------------                 ------------------------                     ----------------

           IN:                                      IN:
           ---                                      ---
              STO-SS =          22.3027                STO-SS =       7.8370E-02     STORAGE         
              STO-SY =       14083.7184                STO-SY =          48.4992     STORAGE         
                 RCH =       81827.7056                   RCH =         107.2606     RCHA            
                 CHD =          58.2744                   CHD =           0.0000     CHD             

            TOTAL IN =       95992.0010              TOTAL IN =         155.8381

          OUT:                                     OUT:
          ----                                     ----
              STO-SS =          17.3953                STO-SS =       2.3164E-05     STORAGE         
              STO-SY =       11243.2450                STO-SY =       1.6510E-02     STORAGE         
                 RCH =           0.0000                   RCH =           0.0000     RCHA            
                 CHD =       84731.7918                   CHD =         155.8193     CHD             

           TOTAL OUT =       95992.4321             TOTAL OUT =         155.8359

            IN - OUT =          -0.4311              IN - OUT =       2.2056E-03

 PERCENT DISCREPANCY =          -0.00     PERCENT DISCREPANCY =           0.00




         TIME SUMMARY AT END OF TIME STEP    8 IN STRESS PERIOD   17
                    SECONDS     MINUTES      HOURS       DAYS        YEARS
                    -----------------------------------------------------------
   TIME STEP LENGTH 2.59200E+05  4320.0      72.000      3.0000     8.21355E-03
 STRESS PERIOD TIME 2.07360E+06  34560.      576.00      24.000     6.57084E-02
         TOTAL TIME 4.10400E+07 6.84000E+05  11400.      475.00      1.3005    
 UBDSV1 SAVING           STO-SS ON UNIT   1016 AT TIME STEP      9, STRESS PERIOD     17
 UBDSV1 SAVING           STO-SY ON UNIT   1016 AT TIME STEP      9, STRESS PERIOD     17
 UBDSV1 SAVING     FLOW-JA-FACE ON UNIT   1016 AT TIME STEP      9, STRESS PERIOD     17
 UBDSV06 SAVING              RCH IN MODEL TEST_TRANS       PACKAGE TEST_TRANS      CONNECTED TO MODEL TEST_TRANS       PACKAGE RCHA             ON UNIT   1016 AT TIME STEP      9, STRESS PERIOD     17
 UBDSV06 SAVING              CHD IN MODEL TEST_TRANS       PACKAGE TEST_TRANS      CONNECTED TO MODEL TEST_TRANS       PACKAGE CHD              ON UNIT   1016 AT TIME STEP      9, STRESS PERIOD     17

 HEAD WILL BE SAVED ON UNIT 1017 AT END OF TIME STEP    9, STRESS PERIOD   17


  VOLUME BUDGET FOR ENTIRE MODEL AT END OF TIME STEP    9, STRESS PERIOD  17
  ---------------------------------------------------------------------------------------------------

     CUMULATIVE VOLUME      L**3       RATES FOR THIS TIME STEP      L**3/T          PACKAGE NAME    
     ------------------                 ------------------------                     ----------------

           IN:                                      IN:
           ---                                      ---
              STO-SS =          22.5365                STO-SS =       7.7928E-02     STORAGE         
              STO-SY =       14228.7482                STO-SY =          48.3433     STORAGE         
                 RCH =       82149.4873                   RCH =         107.2606     RCHA            
                 CHD =          58.2744                   CHD =           0.0000     CHD             

            TOTAL IN =       96459.0463              TOTAL IN =         155.6818

          OUT:                                     OUT:
          ----                                     ----
              STO-SS =          17.3953                STO-SS =           0.0000     STORAGE         
              STO-SY =       11243.2450                STO-SY =           0.0000     STORAGE         
                 RCH =           0.0000                   RCH =           0.0000     RCHA            
                 CHD =       85198.8301                   CHD =         155.6794     CHD             

           TOTAL OUT =       96459.4704             TOTAL OUT =         155.6794

            IN - OUT =          -0.4241              IN - OUT =       2.3357E-03

 PERCENT DISCREPANCY =          -0.00     PERCENT DISCREPANCY =           0.00




         TIME SUMMARY AT END OF TIME STEP    9 IN STRESS PERIOD   17
                    SECONDS     MINUTES      HOURS       DAYS        YEARS
                    -----------------------------------------------------------
   TIME STEP LENGTH 2.59200E+05  4320.0      72.000      3.0000     8.21355E-03
 STRESS PERIOD TIME 2.33280E+06  38880.      648.00      27.000     7.39220E-02
         TOTAL TIME 4.12992E+07 6.88320E+05  11472.      478.00      1.3087    
 UBDSV1 SAVING           STO-SS ON UNIT   1016 AT TIME STEP     10, STRESS PERIOD     17
 UBDSV1 SAVING           STO-SY ON UNIT   1016 AT TIME STEP     10, STRESS PERIOD     17
 UBDSV1 SAVING     FLOW-JA-FACE ON UNIT   1016 AT TIME STEP     10, STRESS PERIOD     17
 UBDSV06 SAVING              RCH IN MODEL TEST_TRANS       PACKAGE TEST_TRANS      CONNECTED TO MODEL TEST_TRANS       PACKAGE RCHA             ON UNIT   1016 AT TIME STEP     10, STRESS PERIOD     17
 UBDSV06 SAVING              CHD IN MODEL TEST_TRANS       PACKAGE TEST_TRANS      CONNECTED TO MODEL TEST_TRANS       PACKAGE CHD              ON UNIT   1016 AT TIME STEP     10, STRESS PERIOD     17

 HEAD WILL BE SAVED ON UNIT 1017 AT END OF TIME STEP   10, STRESS PERIOD   17


  VOLUME BUDGET FOR ENTIRE MODEL AT END OF TIME STEP   10, STRESS PERIOD  17
  ---------------------------------------------------------------------------------------------------

     CUMULATIVE VOLUME      L**3       RATES FOR THIS TIME STEP      L**3/T          PACKAGE NAME    
     ------------------                 ------------------------                     ----------------

           IN:                                      IN:
           ---                                      ---
              STO-SS =          22.7685                STO-SS =       7.7333E-02     STORAGE         
              STO-SY =       14372.9690                STO-SY =          48.0736     STORAGE         
                 RCH =       82471.2690                   RCH =         107.2606     RCHA            
                 CHD =          58.2744                   CHD =           0.0000     CHD             

            TOTAL IN =       96925.2808              TOTAL IN =         155.4115

          OUT:                                     OUT:
          ----                                     ----
              STO-SS =          17.3953                STO-SS =           0.0000     STORAGE         
              STO-SY =       11243.2450                STO-SY =           0.0000     STORAGE         
                 RCH =           0.0000                   RCH =           0.0000     RCHA            
                 CHD =       85665.0573                   CHD =         155.4091     CHD             

           TOTAL OUT =       96925.6976             TOTAL OUT =         155.4091

            IN - OUT =          -0.4168              IN - OUT =       2.4062E-03

 PERCENT DISCREPANCY =          -0.00     PERCENT DISCREPANCY =           0.00




         TIME SUMMARY AT END OF TIME STEP   10 IN STRESS PERIOD   17
                    SECONDS     MINUTES      HOURS       DAYS        YEARS
                    -----------------------------------------------------------
   TIME STEP LENGTH 2.59200E+05  4320.0      72.000      3.0000     8.21355E-03
 STRESS PERIOD TIME 2.59200E+06  43200.      720.00      30.000     8.21355E-02
         TOTAL TIME 4.15584E+07 6.92640E+05  11544.      481.00      1.3169    

 OUTPUT CONTROL FOR STRESS PERIOD 18 IS REPEATED USING SETTINGS FROM A PREVIOUS STRESS PERIOD.


 STRESS PERIOD 18 IS TRANSIENT


                 RECHARGE =  0.8219178E-03
 UBDSV1 SAVING           STO-SS ON UNIT   1016 AT TIME STEP      1, STRESS PERIOD     18
 UBDSV1 SAVING           STO-SY ON UNIT   1016 AT TIME STEP      1, STRESS PERIOD     18
 UBDSV1 SAVING     FLOW-JA-FACE ON UNIT   1016 AT TIME STEP      1, STRESS PERIOD     18
 UBDSV06 SAVING              RCH IN MODEL TEST_TRANS       PACKAGE TEST_TRANS      CONNECTED TO MODEL TEST_TRANS       PACKAGE RCHA             ON UNIT   1016 AT TIME STEP      1, STRESS PERIOD     18
 UBDSV06 SAVING              CHD IN MODEL TEST_TRANS       PACKAGE TEST_TRANS      CONNECTED TO MODEL TEST_TRANS       PACKAGE CHD              ON UNIT   1016 AT TIME STEP      1, STRESS PERIOD     18

 HEAD WILL BE SAVED ON UNIT 1017 AT END OF TIME STEP    1, STRESS PERIOD   18


  VOLUME BUDGET FOR ENTIRE MODEL AT END OF TIME STEP    1, STRESS PERIOD  18
  ---------------------------------------------------------------------------------------------------

     CUMULATIVE VOLUME      L**3       RATES FOR THIS TIME STEP      L**3/T          PACKAGE NAME    
     ------------------                 ------------------------                     ----------------

           IN:                                      IN:
           ---                                      ---
              STO-SS =          23.1054                STO-SS =           0.1123     STORAGE         
              STO-SY =       14581.9791                STO-SY =          69.6700     STORAGE         
                 RCH =       82685.7895                   RCH =          71.5068     RCHA            
                 CHD =          58.2744                   CHD =           0.0000     CHD             

            TOTAL IN =       97349.1484              TOTAL IN =         141.2892

          OUT:                                     OUT:
          ----                                     ----
              STO-SS =          17.6993                STO-SS =           0.1013     STORAGE         
              STO-SY =       11456.5222                STO-SY =          71.0924     STORAGE         
                 RCH =           0.0000                   RCH =           0.0000     RCHA            
                 CHD =       85875.3389                   CHD =          70.0938     CHD             

           TOTAL OUT =       97349.5603             TOTAL OUT =         141.2876

            IN - OUT =          -0.4119              IN - OUT =       1.6537E-03

 PERCENT DISCREPANCY =          -0.00     PERCENT DISCREPANCY =           0.00




         TIME SUMMARY AT END OF TIME STEP    1 IN STRESS PERIOD   18
                    SECONDS     MINUTES      HOURS       DAYS        YEARS
                    -----------------------------------------------------------
   TIME STEP LENGTH 2.59200E+05  4320.0      72.000      3.0000     8.21355E-03
 STRESS PERIOD TIME 2.59200E+05  4320.0      72.000      3.0000     8.21355E-03
         TOTAL TIME 4.18176E+07 6.96960E+05  11616.      484.00      1.3251    
 UBDSV1 SAVING           STO-SS ON UNIT   1016 AT TIME STEP      2, STRESS PERIOD     18
 UBDSV1 SAVING           STO-SY ON UNIT   1016 AT TIME STEP      2, STRESS PERIOD     18
 UBDSV1 SAVING     FLOW-JA-FACE ON UNIT   1016 AT TIME STEP      2, STRESS PERIOD     18
 UBDSV06 SAVING              RCH IN MODEL TEST_TRANS       PACKAGE TEST_TRANS      CONNECTED TO MODEL TEST_TRANS       PACKAGE RCHA             ON UNIT   1016 AT TIME STEP      2, STRESS PERIOD     18
 UBDSV06 SAVING              CHD IN MODEL TEST_TRANS       PACKAGE TEST_TRANS      CONNECTED TO MODEL TEST_TRANS       PACKAGE CHD              ON UNIT   1016 AT TIME STEP      2, STRESS PERIOD     18

 HEAD WILL BE SAVED ON UNIT 1017 AT END OF TIME STEP    2, STRESS PERIOD   18


  VOLUME BUDGET FOR ENTIRE MODEL AT END OF TIME STEP    2, STRESS PERIOD  18
  ---------------------------------------------------------------------------------------------------

     CUMULATIVE VOLUME      L**3       RATES FOR THIS TIME STEP      L**3/T          PACKAGE NAME    
     ------------------                 ------------------------                     ----------------

           IN:                                      IN:
           ---                                      ---
              STO-SS =          23.4198                STO-SS =           0.1048     STORAGE         
              STO-SY =       14776.7307                STO-SY =          64.9172     STORAGE         
                 RCH =       82900.3101                   RCH =          71.5068     RCHA            
                 CHD =          58.2744                   CHD =           0.0000     CHD             

            TOTAL IN =       97758.7349              TOTAL IN =         136.5288

          OUT:                                     OUT:
          ----                                     ----
              STO-SS =          17.8561                STO-SS =       5.2271E-02     STORAGE         
              STO-SY =       11564.9422                STO-SY =          36.1400     STORAGE         
                 RCH =           0.0000                   RCH =           0.0000     RCHA            
                 CHD =       86176.3390                   CHD =         100.3334     CHD             

           TOTAL OUT =       97759.1373             TOTAL OUT =         136.5257

            IN - OUT =          -0.4023              IN - OUT =       3.1869E-03

 PERCENT DISCREPANCY =          -0.00     PERCENT DISCREPANCY =           0.00




         TIME SUMMARY AT END OF TIME STEP    2 IN STRESS PERIOD   18
                    SECONDS     MINUTES      HOURS       DAYS        YEARS
                    -----------------------------------------------------------
   TIME STEP LENGTH 2.59200E+05  4320.0      72.000      3.0000     8.21355E-03
 STRESS PERIOD TIME 5.18400E+05  8640.0      144.00      6.0000     1.64271E-02
         TOTAL TIME 4.20768E+07 7.01280E+05  11688.      487.00      1.3333    
 UBDSV1 SAVING           STO-SS ON UNIT   1016 AT TIME STEP      3, STRESS PERIOD     18
 UBDSV1 SAVING           STO-SY ON UNIT   1016 AT TIME STEP      3, STRESS PERIOD     18
 UBDSV1 SAVING     FLOW-JA-FACE ON UNIT   1016 AT TIME STEP      3, STRESS PERIOD     18
 UBDSV06 SAVING              RCH IN MODEL TEST_TRANS       PACKAGE TEST_TRANS      CONNECTED TO MODEL TEST_TRANS       PACKAGE RCHA             ON UNIT   1016 AT TIME STEP      3, STRESS PERIOD     18
 UBDSV06 SAVING              CHD IN MODEL TEST_TRANS       PACKAGE TEST_TRANS      CONNECTED TO MODEL TEST_TRANS       PACKAGE CHD              ON UNIT   1016 AT TIME STEP      3, STRESS PERIOD     18

 HEAD WILL BE SAVED ON UNIT 1017 AT END OF TIME STEP    3, STRESS PERIOD   18


  VOLUME BUDGET FOR ENTIRE MODEL AT END OF TIME STEP    3, STRESS PERIOD  18
  ---------------------------------------------------------------------------------------------------

     CUMULATIVE VOLUME      L**3       RATES FOR THIS TIME STEP      L**3/T          PACKAGE NAME    
     ------------------                 ------------------------                     ----------------

           IN:                                      IN:
           ---                                      ---
              STO-SS =          23.7164                STO-SS =       9.8884E-02     STORAGE         
              STO-SY =       14960.4269                STO-SY =          61.2321     STORAGE         
                 RCH =       83114.8306                   RCH =          71.5068     RCHA            
                 CHD =          58.2744                   CHD =           0.0000     CHD             

            TOTAL IN =       98157.2483              TOTAL IN =         132.8378

          OUT:                                     OUT:
          ----                                     ----
              STO-SS =          17.9492                STO-SS =       3.1048E-02     STORAGE         
              STO-SY =       11628.8699                STO-SY =          21.3092     STORAGE         
                 RCH =           0.0000                   RCH =           0.0000     RCHA            
                 CHD =       86510.8295                   CHD =         111.4968     CHD             

           TOTAL OUT =       98157.6486             TOTAL OUT =         132.8371

            IN - OUT =          -0.4003              IN - OUT =       6.6252E-04

 PERCENT DISCREPANCY =          -0.00     PERCENT DISCREPANCY =           0.00




         TIME SUMMARY AT END OF TIME STEP    3 IN STRESS PERIOD   18
                    SECONDS     MINUTES      HOURS       DAYS        YEARS
                    -----------------------------------------------------------
   TIME STEP LENGTH 2.59200E+05  4320.0      72.000      3.0000     8.21355E-03
 STRESS PERIOD TIME 7.77600E+05  12960.      216.00      9.0000     2.46407E-02
         TOTAL TIME 4.23360E+07 7.05600E+05  11760.      490.00      1.3415    
 UBDSV1 SAVING           STO-SS ON UNIT   1016 AT TIME STEP      4, STRESS PERIOD     18
 UBDSV1 SAVING           STO-SY ON UNIT   1016 AT TIME STEP      4, STRESS PERIOD     18
 UBDSV1 SAVING     FLOW-JA-FACE ON UNIT   1016 AT TIME STEP      4, STRESS PERIOD     18
 UBDSV06 SAVING              RCH IN MODEL TEST_TRANS       PACKAGE TEST_TRANS      CONNECTED TO MODEL TEST_TRANS       PACKAGE RCHA             ON UNIT   1016 AT TIME STEP      4, STRESS PERIOD     18
 UBDSV06 SAVING              CHD IN MODEL TEST_TRANS       PACKAGE TEST_TRANS      CONNECTED TO MODEL TEST_TRANS       PACKAGE CHD              ON UNIT   1016 AT TIME STEP      4, STRESS PERIOD     18

 HEAD WILL BE SAVED ON UNIT 1017 AT END OF TIME STEP    4, STRESS PERIOD   18


  VOLUME BUDGET FOR ENTIRE MODEL AT END OF TIME STEP    4, STRESS PERIOD  18
  ---------------------------------------------------------------------------------------------------

     CUMULATIVE VOLUME      L**3       RATES FOR THIS TIME STEP      L**3/T          PACKAGE NAME    
     ------------------                 ------------------------                     ----------------

           IN:                                      IN:
           ---                                      ---
              STO-SS =          23.9995                STO-SS =       9.4373E-02     STORAGE         
              STO-SY =       15135.7883                STO-SY =          58.4538     STORAGE         
                 RCH =       83329.3512                   RCH =          71.5068     RCHA            
                 CHD =          58.2744                   CHD =           0.0000     CHD             

            TOTAL IN =       98547.4134              TOTAL IN =         130.0550

          OUT:                                     OUT:
          ----                                     ----
              STO-SS =          18.0072                STO-SS =       1.9341E-02     STORAGE         
              STO-SY =       11668.5292                STO-SY =          13.2198     STORAGE         
                 RCH =           0.0000                   RCH =           0.0000     RCHA            
                 CHD =       86861.2766                   CHD =         116.8157     CHD             

           TOTAL OUT =       98547.8131             TOTAL OUT =         130.0548

            IN - OUT =          -0.3997              IN - OUT =       1.9202E-04

 PERCENT DISCREPANCY =          -0.00     PERCENT DISCREPANCY =           0.00




         TIME SUMMARY AT END OF TIME STEP    4 IN STRESS PERIOD   18
                    SECONDS     MINUTES      HOURS       DAYS        YEARS
                    -----------------------------------------------------------
   TIME STEP LENGTH 2.59200E+05  4320.0      72.000      3.0000     8.21355E-03
 STRESS PERIOD TIME 1.03680E+06  17280.      288.00      12.000     3.28542E-02
         TOTAL TIME 4.25952E+07 7.09920E+05  11832.      493.00      1.3498    
 UBDSV1 SAVING           STO-SS ON UNIT   1016 AT TIME STEP      5, STRESS PERIOD     18
 UBDSV1 SAVING           STO-SY ON UNIT   1016 AT TIME STEP      5, STRESS PERIOD     18
 UBDSV1 SAVING     FLOW-JA-FACE ON UNIT   1016 AT TIME STEP      5, STRESS PERIOD     18
 UBDSV06 SAVING              RCH IN MODEL TEST_TRANS       PACKAGE TEST_TRANS      CONNECTED TO MODEL TEST_TRANS       PACKAGE RCHA             ON UNIT   1016 AT TIME STEP      5, STRESS PERIOD     18
 UBDSV06 SAVING              CHD IN MODEL TEST_TRANS       PACKAGE TEST_TRANS      CONNECTED TO MODEL TEST_TRANS       PACKAGE CHD              ON UNIT   1016 AT TIME STEP      5, STRESS PERIOD     18

 HEAD WILL BE SAVED ON UNIT 1017 AT END OF TIME STEP    5, STRESS PERIOD   18


  VOLUME BUDGET FOR ENTIRE MODEL AT END OF TIME STEP    5, STRESS PERIOD  18
  ---------------------------------------------------------------------------------------------------

     CUMULATIVE VOLUME      L**3       RATES FOR THIS TIME STEP      L**3/T          PACKAGE NAME    
     ------------------                 ------------------------                     ----------------

           IN:                                      IN:
           ---                                      ---
              STO-SS =          24.2716                STO-SS =       9.0694E-02     STORAGE         
              STO-SY =       15304.4125                STO-SY =          56.2081     STORAGE         
                 RCH =       83543.8717                   RCH =          71.5068     RCHA            
                 CHD =          58.2744                   CHD =           0.0000     CHD             

            TOTAL IN =       98930.8302              TOTAL IN =         127.8056

          OUT:                                     OUT:
          ----                                     ----
              STO-SS =          18.0427                STO-SS =       1.1827E-02     STORAGE         
              STO-SY =       11692.7464                STO-SY =           8.0724     STORAGE         
                 RCH =           0.0000                   RCH =           0.0000     RCHA            
                 CHD =       87220.4409                   CHD =         119.7214     CHD             

           TOTAL OUT =       98931.2300             TOTAL OUT =         127.8056

            IN - OUT =          -0.3998              IN - OUT =      -1.8162E-05

 PERCENT DISCREPANCY =          -0.00     PERCENT DISCREPANCY =          -0.00




         TIME SUMMARY AT END OF TIME STEP    5 IN STRESS PERIOD   18
                    SECONDS     MINUTES      HOURS       DAYS        YEARS
                    -----------------------------------------------------------
   TIME STEP LENGTH 2.59200E+05  4320.0      72.000      3.0000     8.21355E-03
 STRESS PERIOD TIME 1.29600E+06  21600.      360.00      15.000     4.10678E-02
         TOTAL TIME 4.28544E+07 7.14240E+05  11904.      496.00      1.3580    
 UBDSV1 SAVING           STO-SS ON UNIT   1016 AT TIME STEP      6, STRESS PERIOD     18
 UBDSV1 SAVING           STO-SY ON UNIT   1016 AT TIME STEP      6, STRESS PERIOD     18
 UBDSV1 SAVING     FLOW-JA-FACE ON UNIT   1016 AT TIME STEP      6, STRESS PERIOD     18
 UBDSV06 SAVING              RCH IN MODEL TEST_TRANS       PACKAGE TEST_TRANS      CONNECTED TO MODEL TEST_TRANS       PACKAGE RCHA             ON UNIT   1016 AT TIME STEP      6, STRESS PERIOD     18
 UBDSV06 SAVING              CHD IN MODEL TEST_TRANS       PACKAGE TEST_TRANS      CONNECTED TO MODEL TEST_TRANS       PACKAGE CHD              ON UNIT   1016 AT TIME STEP      6, STRESS PERIOD     18

 HEAD WILL BE SAVED ON UNIT 1017 AT END OF TIME STEP    6, STRESS PERIOD   18


  VOLUME BUDGET FOR ENTIRE MODEL AT END OF TIME STEP    6, STRESS PERIOD  18
  ---------------------------------------------------------------------------------------------------

     CUMULATIVE VOLUME      L**3       RATES FOR THIS TIME STEP      L**3/T          PACKAGE NAME    
     ------------------                 ------------------------                     ----------------

           IN:                                      IN:
           ---                                      ---
              STO-SS =          24.5353                STO-SS =       8.7901E-02     STORAGE         
              STO-SY =       15468.0037                STO-SY =          54.5304     STORAGE         
                 RCH =       83758.3923                   RCH =          71.5068     RCHA            
                 CHD =          58.2744                   CHD =           0.0000     CHD             

            TOTAL IN =       99309.2056              TOTAL IN =         126.1251

          OUT:                                     OUT:
          ----                                     ----
              STO-SS =          18.0635                STO-SS =       6.9099E-03     STORAGE         
              STO-SY =       11706.8957                STO-SY =           4.7164     STORAGE         
                 RCH =           0.0000                   RCH =           0.0000     RCHA            
                 CHD =       87584.6443                   CHD =         121.4011     CHD             

           TOTAL OUT =       99309.6034             TOTAL OUT =         126.1245

            IN - OUT =          -0.3978              IN - OUT =       6.5720E-04

 PERCENT DISCREPANCY =          -0.00     PERCENT DISCREPANCY =           0.00




         TIME SUMMARY AT END OF TIME STEP    6 IN STRESS PERIOD   18
                    SECONDS     MINUTES      HOURS       DAYS        YEARS
                    -----------------------------------------------------------
   TIME STEP LENGTH 2.59200E+05  4320.0      72.000      3.0000     8.21355E-03
 STRESS PERIOD TIME 1.55520E+06  25920.      432.00      18.000     4.92813E-02
         TOTAL TIME 4.31136E+07 7.18560E+05  11976.      499.00      1.3662    
 UBDSV1 SAVING           STO-SS ON UNIT   1016 AT TIME STEP      7, STRESS PERIOD     18
 UBDSV1 SAVING           STO-SY ON UNIT   1016 AT TIME STEP      7, STRESS PERIOD     18
 UBDSV1 SAVING     FLOW-JA-FACE ON UNIT   1016 AT TIME STEP      7, STRESS PERIOD     18
 UBDSV06 SAVING              RCH IN MODEL TEST_TRANS       PACKAGE TEST_TRANS      CONNECTED TO MODEL TEST_TRANS       PACKAGE RCHA             ON UNIT   1016 AT TIME STEP      7, STRESS PERIOD     18
 UBDSV06 SAVING              CHD IN MODEL TEST_TRANS       PACKAGE TEST_TRANS      CONNECTED TO MODEL TEST_TRANS       PACKAGE CHD              ON UNIT   1016 AT TIME STEP      7, STRESS PERIOD     18

 HEAD WILL BE SAVED ON UNIT 1017 AT END OF TIME STEP    7, STRESS PERIOD   18


  VOLUME BUDGET FOR ENTIRE MODEL AT END OF TIME STEP    7, STRESS PERIOD  18
  ---------------------------------------------------------------------------------------------------

     CUMULATIVE VOLUME      L**3       RATES FOR THIS TIME STEP      L**3/T          PACKAGE NAME    
     ------------------                 ------------------------                     ----------------

           IN:                                      IN:
           ---                                      ---
              STO-SS =          24.7924                STO-SS =       8.5686E-02     STORAGE         
              STO-SY =       15627.6602                STO-SY =          53.2189     STORAGE         
                 RCH =       83972.9128                   RCH =          71.5068     RCHA            
                 CHD =          58.2744                   CHD =           0.0000     CHD             

            TOTAL IN =       99683.6398              TOTAL IN =         124.8114

          OUT:                                     OUT:
          ----                                     ----
              STO-SS =          18.0741                STO-SS =       3.5628E-03     STORAGE         
              STO-SY =       11714.2085                STO-SY =           2.4376     STORAGE         
                 RCH =           0.0000                   RCH =           0.0000     RCHA            
                 CHD =       87951.7517                   CHD =         122.3691     CHD             

           TOTAL OUT =       99684.0343             TOTAL OUT =         124.8103

            IN - OUT =          -0.3945              IN - OUT =       1.1119E-03

 PERCENT DISCREPANCY =          -0.00     PERCENT DISCREPANCY =           0.00




         TIME SUMMARY AT END OF TIME STEP    7 IN STRESS PERIOD   18
                    SECONDS     MINUTES      HOURS       DAYS        YEARS
                    -----------------------------------------------------------
   TIME STEP LENGTH 2.59200E+05  4320.0      72.000      3.0000     8.21355E-03
 STRESS PERIOD TIME 1.81440E+06  30240.      504.00      21.000     5.74949E-02
         TOTAL TIME 4.33728E+07 7.22880E+05  12048.      502.00      1.3744    
 UBDSV1 SAVING           STO-SS ON UNIT   1016 AT TIME STEP      8, STRESS PERIOD     18
 UBDSV1 SAVING           STO-SY ON UNIT   1016 AT TIME STEP      8, STRESS PERIOD     18
 UBDSV1 SAVING     FLOW-JA-FACE ON UNIT   1016 AT TIME STEP      8, STRESS PERIOD     18
 UBDSV06 SAVING              RCH IN MODEL TEST_TRANS       PACKAGE TEST_TRANS      CONNECTED TO MODEL TEST_TRANS       PACKAGE RCHA             ON UNIT   1016 AT TIME STEP      8, STRESS PERIOD     18
 UBDSV06 SAVING              CHD IN MODEL TEST_TRANS       PACKAGE TEST_TRANS      CONNECTED TO MODEL TEST_TRANS       PACKAGE CHD              ON UNIT   1016 AT TIME STEP      8, STRESS PERIOD     18

 HEAD WILL BE SAVED ON UNIT 1017 AT END OF TIME STEP    8, STRESS PERIOD   18


  VOLUME BUDGET FOR ENTIRE MODEL AT END OF TIME STEP    8, STRESS PERIOD  18
  ---------------------------------------------------------------------------------------------------

     CUMULATIVE VOLUME      L**3       RATES FOR THIS TIME STEP      L**3/T          PACKAGE NAME    
     ------------------                 ------------------------                     ----------------

           IN:                                      IN:
           ---                                      ---
              STO-SS =          25.0447                STO-SS =       8.4117E-02     STORAGE         
              STO-SY =       15784.6244                STO-SY =          52.3214     STORAGE         
                 RCH =       84187.4334                   RCH =          71.5068     RCHA            
                 CHD =          58.2744                   CHD =           0.0000     CHD             

            TOTAL IN =      100055.3769              TOTAL IN =         123.9124

          OUT:                                     OUT:
          ----                                     ----
              STO-SS =          18.0786                STO-SS =       1.4898E-03     STORAGE         
              STO-SY =       11717.2792                STO-SY =           1.0236     STORAGE         
                 RCH =           0.0000                   RCH =           0.0000     RCHA            
                 CHD =       88320.4093                   CHD =         122.8859     CHD             

           TOTAL OUT =      100055.7671             TOTAL OUT =         123.9109

            IN - OUT =          -0.3902              IN - OUT =       1.4205E-03

 PERCENT DISCREPANCY =          -0.00     PERCENT DISCREPANCY =           0.00




         TIME SUMMARY AT END OF TIME STEP    8 IN STRESS PERIOD   18
                    SECONDS     MINUTES      HOURS       DAYS        YEARS
                    -----------------------------------------------------------
   TIME STEP LENGTH 2.59200E+05  4320.0      72.000      3.0000     8.21355E-03
 STRESS PERIOD TIME 2.07360E+06  34560.      576.00      24.000     6.57084E-02
         TOTAL TIME 4.36320E+07 7.27200E+05  12120.      505.00      1.3826    
 UBDSV1 SAVING           STO-SS ON UNIT   1016 AT TIME STEP      9, STRESS PERIOD     18
 UBDSV1 SAVING           STO-SY ON UNIT   1016 AT TIME STEP      9, STRESS PERIOD     18
 UBDSV1 SAVING     FLOW-JA-FACE ON UNIT   1016 AT TIME STEP      9, STRESS PERIOD     18
 UBDSV06 SAVING              RCH IN MODEL TEST_TRANS       PACKAGE TEST_TRANS      CONNECTED TO MODEL TEST_TRANS       PACKAGE RCHA             ON UNIT   1016 AT TIME STEP      9, STRESS PERIOD     18
 UBDSV06 SAVING              CHD IN MODEL TEST_TRANS       PACKAGE TEST_TRANS      CONNECTED TO MODEL TEST_TRANS       PACKAGE CHD              ON UNIT   1016 AT TIME STEP      9, STRESS PERIOD     18

 HEAD WILL BE SAVED ON UNIT 1017 AT END OF TIME STEP    9, STRESS PERIOD   18


  VOLUME BUDGET FOR ENTIRE MODEL AT END OF TIME STEP    9, STRESS PERIOD  18
  ---------------------------------------------------------------------------------------------------

     CUMULATIVE VOLUME      L**3       RATES FOR THIS TIME STEP      L**3/T          PACKAGE NAME    
     ------------------                 ------------------------                     ----------------

           IN:                                      IN:
           ---                                      ---
              STO-SS =          25.2940                STO-SS =       8.3075E-02     STORAGE         
              STO-SY =       15939.9199                STO-SY =          51.7652     STORAGE         
                 RCH =       84401.9539                   RCH =          71.5068     RCHA            
                 CHD =          58.2744                   CHD =           0.0000     CHD             

            TOTAL IN =      100425.4421              TOTAL IN =         123.3551

          OUT:                                     OUT:
          ----                                     ----
              STO-SS =          18.0797                STO-SS =       3.6781E-04     STORAGE         
              STO-SY =       11718.0426                STO-SY =           0.2545     STORAGE         
                 RCH =           0.0000                   RCH =           0.0000     RCHA            
                 CHD =       88689.7052                   CHD =         123.0986     CHD             

           TOTAL OUT =      100425.8275             TOTAL OUT =         123.3535

            IN - OUT =          -0.3854              IN - OUT =       1.6224E-03

 PERCENT DISCREPANCY =          -0.00     PERCENT DISCREPANCY =           0.00




         TIME SUMMARY AT END OF TIME STEP    9 IN STRESS PERIOD   18
                    SECONDS     MINUTES      HOURS       DAYS        YEARS
                    -----------------------------------------------------------
   TIME STEP LENGTH 2.59200E+05  4320.0      72.000      3.0000     8.21355E-03
 STRESS PERIOD TIME 2.33280E+06  38880.      648.00      27.000     7.39220E-02
         TOTAL TIME 4.38912E+07 7.31520E+05  12192.      508.00      1.3908    
 UBDSV1 SAVING           STO-SS ON UNIT   1016 AT TIME STEP     10, STRESS PERIOD     18
 UBDSV1 SAVING           STO-SY ON UNIT   1016 AT TIME STEP     10, STRESS PERIOD     18
 UBDSV1 SAVING     FLOW-JA-FACE ON UNIT   1016 AT TIME STEP     10, STRESS PERIOD     18
 UBDSV06 SAVING              RCH IN MODEL TEST_TRANS       PACKAGE TEST_TRANS      CONNECTED TO MODEL TEST_TRANS       PACKAGE RCHA             ON UNIT   1016 AT TIME STEP     10, STRESS PERIOD     18
 UBDSV06 SAVING              CHD IN MODEL TEST_TRANS       PACKAGE TEST_TRANS      CONNECTED TO MODEL TEST_TRANS       PACKAGE CHD              ON UNIT   1016 AT TIME STEP     10, STRESS PERIOD     18

 HEAD WILL BE SAVED ON UNIT 1017 AT END OF TIME STEP   10, STRESS PERIOD   18


  VOLUME BUDGET FOR ENTIRE MODEL AT END OF TIME STEP   10, STRESS PERIOD  18
  ---------------------------------------------------------------------------------------------------

     CUMULATIVE VOLUME      L**3       RATES FOR THIS TIME STEP      L**3/T          PACKAGE NAME    
     ------------------                 ------------------------                     ----------------

           IN:                                      IN:
           ---                                      ---
              STO-SS =          25.5414                STO-SS =       8.2492E-02     STORAGE         
              STO-SY =       16094.4496                STO-SY =          51.5099     STORAGE         
                 RCH =       84616.4745                   RCH =          71.5068     RCHA            
                 CHD =          58.2744                   CHD =           0.0000     CHD             

            TOTAL IN =      100794.7399              TOTAL IN =         123.0993

          OUT:                                     OUT:
          ----                                     ----
              STO-SS =          18.0797                STO-SS =           0.0000     STORAGE         
              STO-SY =       11718.0426                STO-SY =           0.0000     STORAGE         
                 RCH =           0.0000                   RCH =           0.0000     RCHA            
                 CHD =       89058.9977                   CHD =         123.0975     CHD             

           TOTAL OUT =      100795.1201             TOTAL OUT =         123.0975

            IN - OUT =          -0.3802              IN - OUT =       1.7366E-03

 PERCENT DISCREPANCY =          -0.00     PERCENT DISCREPANCY =           0.00




         TIME SUMMARY AT END OF TIME STEP   10 IN STRESS PERIOD   18
                    SECONDS     MINUTES      HOURS       DAYS        YEARS
                    -----------------------------------------------------------
   TIME STEP LENGTH 2.59200E+05  4320.0      72.000      3.0000     8.21355E-03
 STRESS PERIOD TIME 2.59200E+06  43200.      720.00      30.000     8.21355E-02
         TOTAL TIME 4.41504E+07 7.35840E+05  12264.      511.00      1.3990    

 OUTPUT CONTROL FOR STRESS PERIOD 19 IS REPEATED USING SETTINGS FROM A PREVIOUS STRESS PERIOD.


 STRESS PERIOD 19 IS TRANSIENT


                 RECHARGE =  0.5479452E-03
 UBDSV1 SAVING           STO-SS ON UNIT   1016 AT TIME STEP      1, STRESS PERIOD     19
 UBDSV1 SAVING           STO-SY ON UNIT   1016 AT TIME STEP      1, STRESS PERIOD     19
 UBDSV1 SAVING     FLOW-JA-FACE ON UNIT   1016 AT TIME STEP      1, STRESS PERIOD     19
 UBDSV06 SAVING              RCH IN MODEL TEST_TRANS       PACKAGE TEST_TRANS      CONNECTED TO MODEL TEST_TRANS       PACKAGE RCHA             ON UNIT   1016 AT TIME STEP      1, STRESS PERIOD     19
 UBDSV06 SAVING              CHD IN MODEL TEST_TRANS       PACKAGE TEST_TRANS      CONNECTED TO MODEL TEST_TRANS       PACKAGE CHD              ON UNIT   1016 AT TIME STEP      1, STRESS PERIOD     19

 HEAD WILL BE SAVED ON UNIT 1017 AT END OF TIME STEP    1, STRESS PERIOD   19


  VOLUME BUDGET FOR ENTIRE MODEL AT END OF TIME STEP    1, STRESS PERIOD  19
  ---------------------------------------------------------------------------------------------------

     CUMULATIVE VOLUME      L**3       RATES FOR THIS TIME STEP      L**3/T          PACKAGE NAME    
     ------------------                 ------------------------                     ----------------

           IN:                                      IN:
           ---                                      ---
              STO-SS =          25.8432                STO-SS =           0.1006     STORAGE         
              STO-SY =       16282.6171                STO-SY =          62.7225     STORAGE         
                 RCH =       84759.4882                   RCH =          47.6712     RCHA            
                 CHD =         141.1190                   CHD =          27.6149     CHD             

            TOTAL IN =      101209.0675              TOTAL IN =         138.1092

          OUT:                                     OUT:
          ----                                     ----
              STO-SS =          18.6809                STO-SS =           0.2004     STORAGE         
              STO-SY =       12131.7680                STO-SY =         137.9085     STORAGE         
                 RCH =           0.0000                   RCH =           0.0000     RCHA            
                 CHD =       89058.9977                   CHD =           0.0000     CHD             

           TOTAL OUT =      101209.4466             TOTAL OUT =         138.1088

            IN - OUT =          -0.3791              IN - OUT =       3.5986E-04

 PERCENT DISCREPANCY =          -0.00     PERCENT DISCREPANCY =           0.00




         TIME SUMMARY AT END OF TIME STEP    1 IN STRESS PERIOD   19
                    SECONDS     MINUTES      HOURS       DAYS        YEARS
                    -----------------------------------------------------------
   TIME STEP LENGTH 2.59200E+05  4320.0      72.000      3.0000     8.21355E-03
 STRESS PERIOD TIME 2.59200E+05  4320.0      72.000      3.0000     8.21355E-03
         TOTAL TIME 4.44096E+07 7.40160E+05  12336.      514.00      1.4073    
 UBDSV1 SAVING           STO-SS ON UNIT   1016 AT TIME STEP      2, STRESS PERIOD     19
 UBDSV1 SAVING           STO-SY ON UNIT   1016 AT TIME STEP      2, STRESS PERIOD     19
 UBDSV1 SAVING     FLOW-JA-FACE ON UNIT   1016 AT TIME STEP      2, STRESS PERIOD     19
 UBDSV06 SAVING              RCH IN MODEL TEST_TRANS       PACKAGE TEST_TRANS      CONNECTED TO MODEL TEST_TRANS       PACKAGE RCHA             ON UNIT   1016 AT TIME STEP      2, STRESS PERIOD     19
 UBDSV06 SAVING              CHD IN MODEL TEST_TRANS       PACKAGE TEST_TRANS      CONNECTED TO MODEL TEST_TRANS       PACKAGE CHD              ON UNIT   1016 AT TIME STEP      2, STRESS PERIOD     19

 HEAD WILL BE SAVED ON UNIT 1017 AT END OF TIME STEP    2, STRESS PERIOD   19


  VOLUME BUDGET FOR ENTIRE MODEL AT END OF TIME STEP    2, STRESS PERIOD  19
  ---------------------------------------------------------------------------------------------------

     CUMULATIVE VOLUME      L**3       RATES FOR THIS TIME STEP      L**3/T          PACKAGE NAME    
     ------------------                 ------------------------                     ----------------

           IN:                                      IN:
           ---                                      ---
              STO-SS =          26.1211                STO-SS =       9.2630E-02     STORAGE         
              STO-SY =       16455.7157                STO-SY =          57.6995     STORAGE         
                 RCH =       84902.5018                   RCH =          47.6712     RCHA            
                 CHD =         141.1190                   CHD =           0.0000     CHD             

            TOTAL IN =      101525.4577              TOTAL IN =         105.4634

          OUT:                                     OUT:
          ----                                     ----
              STO-SS =          19.0175                STO-SS =           0.1122     STORAGE         
              STO-SY =       12359.9268                STO-SY =          76.0529     STORAGE         
                 RCH =           0.0000                   RCH =           0.0000     RCHA            
                 CHD =       89146.8933                   CHD =          29.2985     CHD             

           TOTAL OUT =      101525.8377             TOTAL OUT =         105.4637

            IN - OUT =          -0.3800              IN - OUT =      -3.1964E-04

 PERCENT DISCREPANCY =          -0.00     PERCENT DISCREPANCY =          -0.00




         TIME SUMMARY AT END OF TIME STEP    2 IN STRESS PERIOD   19
                    SECONDS     MINUTES      HOURS       DAYS        YEARS
                    -----------------------------------------------------------
   TIME STEP LENGTH 2.59200E+05  4320.0      72.000      3.0000     8.21355E-03
 STRESS PERIOD TIME 5.18400E+05  8640.0      144.00      6.0000     1.64271E-02
         TOTAL TIME 4.46688E+07 7.44480E+05  12408.      517.00      1.4155    
 UBDSV1 SAVING           STO-SS ON UNIT   1016 AT TIME STEP      3, STRESS PERIOD     19
 UBDSV1 SAVING           STO-SY ON UNIT   1016 AT TIME STEP      3, STRESS PERIOD     19
 UBDSV1 SAVING     FLOW-JA-FACE ON UNIT   1016 AT TIME STEP      3, STRESS PERIOD     19
 UBDSV06 SAVING              RCH IN MODEL TEST_TRANS       PACKAGE TEST_TRANS      CONNECTED TO MODEL TEST_TRANS       PACKAGE RCHA             ON UNIT   1016 AT TIME STEP      3, STRESS PERIOD     19
 UBDSV06 SAVING              CHD IN MODEL TEST_TRANS       PACKAGE TEST_TRANS      CONNECTED TO MODEL TEST_TRANS       PACKAGE CHD              ON UNIT   1016 AT TIME STEP      3, STRESS PERIOD     19

 HEAD WILL BE SAVED ON UNIT 1017 AT END OF TIME STEP    3, STRESS PERIOD   19


  VOLUME BUDGET FOR ENTIRE MODEL AT END OF TIME STEP    3, STRESS PERIOD  19
  ---------------------------------------------------------------------------------------------------

     CUMULATIVE VOLUME      L**3       RATES FOR THIS TIME STEP      L**3/T          PACKAGE NAME    
     ------------------                 ------------------------                     ----------------

           IN:                                      IN:
           ---                                      ---
              STO-SS =          26.3790                STO-SS =       8.5959E-02     STORAGE         
              STO-SY =       16616.2977                STO-SY =          53.5273     STORAGE         
                 RCH =       85045.5155                   RCH =          47.6712     RCHA            
                 CHD =         141.1190                   CHD =           0.0000     CHD             

            TOTAL IN =      101829.3113              TOTAL IN =         101.2845

          OUT:                                     OUT:
          ----                                     ----
              STO-SS =          19.2429                STO-SS =       7.5136E-02     STORAGE         
              STO-SY =       12511.5153                STO-SY =          50.5295     STORAGE         
                 RCH =           0.0000                   RCH =           0.0000     RCHA            
                 CHD =       89298.9351                   CHD =          50.6806     CHD             

           TOTAL OUT =      101829.6933             TOTAL OUT =         101.2852

            IN - OUT =          -0.3820              IN - OUT =      -6.5552E-04

 PERCENT DISCREPANCY =          -0.00     PERCENT DISCREPANCY =          -0.00




         TIME SUMMARY AT END OF TIME STEP    3 IN STRESS PERIOD   19
                    SECONDS     MINUTES      HOURS       DAYS        YEARS
                    -----------------------------------------------------------
   TIME STEP LENGTH 2.59200E+05  4320.0      72.000      3.0000     8.21355E-03
 STRESS PERIOD TIME 7.77600E+05  12960.      216.00      9.0000     2.46407E-02
         TOTAL TIME 4.49280E+07 7.48800E+05  12480.      520.00      1.4237    
 UBDSV1 SAVING           STO-SS ON UNIT   1016 AT TIME STEP      4, STRESS PERIOD     19
 UBDSV1 SAVING           STO-SY ON UNIT   1016 AT TIME STEP      4, STRESS PERIOD     19
 UBDSV1 SAVING     FLOW-JA-FACE ON UNIT   1016 AT TIME STEP      4, STRESS PERIOD     19
 UBDSV06 SAVING              RCH IN MODEL TEST_TRANS       PACKAGE TEST_TRANS      CONNECTED TO MODEL TEST_TRANS       PACKAGE RCHA             ON UNIT   1016 AT TIME STEP      4, STRESS PERIOD     19
 UBDSV06 SAVING              CHD IN MODEL TEST_TRANS       PACKAGE TEST_TRANS      CONNECTED TO MODEL TEST_TRANS       PACKAGE CHD              ON UNIT   1016 AT TIME STEP      4, STRESS PERIOD     19

 HEAD WILL BE SAVED ON UNIT 1017 AT END OF TIME STEP    4, STRESS PERIOD   19


  VOLUME BUDGET FOR ENTIRE MODEL AT END OF TIME STEP    4, STRESS PERIOD  19
  ---------------------------------------------------------------------------------------------------

     CUMULATIVE VOLUME      L**3       RATES FOR THIS TIME STEP      L**3/T          PACKAGE NAME    
     ------------------                 ------------------------                     ----------------

           IN:                                      IN:
           ---                                      ---
              STO-SS =          26.6194                STO-SS =       8.0148E-02     STORAGE         
              STO-SY =       16766.0254                STO-SY =          49.9092     STORAGE         
                 RCH =       85188.5292                   RCH =          47.6712     RCHA            
                 CHD =         141.1190                   CHD =           0.0000     CHD             

            TOTAL IN =      102122.2931              TOTAL IN =          97.6606

          OUT:                                     OUT:
          ----                                     ----
              STO-SS =          19.4049                STO-SS =       5.3977E-02     STORAGE         
              STO-SY =       12619.8871                STO-SY =          36.1240     STORAGE         
                 RCH =           0.0000                   RCH =           0.0000     RCHA            
                 CHD =       89483.3852                   CHD =          61.4834     CHD             

           TOTAL OUT =      102122.6771             TOTAL OUT =          97.6613

            IN - OUT =          -0.3840              IN - OUT =      -6.7133E-04

 PERCENT DISCREPANCY =          -0.00     PERCENT DISCREPANCY =          -0.00




         TIME SUMMARY AT END OF TIME STEP    4 IN STRESS PERIOD   19
                    SECONDS     MINUTES      HOURS       DAYS        YEARS
                    -----------------------------------------------------------
   TIME STEP LENGTH 2.59200E+05  4320.0      72.000      3.0000     8.21355E-03
 STRESS PERIOD TIME 1.03680E+06  17280.      288.00      12.000     3.28542E-02
         TOTAL TIME 4.51872E+07 7.53120E+05  12552.      523.00      1.4319    
 UBDSV1 SAVING           STO-SS ON UNIT   1016 AT TIME STEP      5, STRESS PERIOD     19
 UBDSV1 SAVING           STO-SY ON UNIT   1016 AT TIME STEP      5, STRESS PERIOD     19
 UBDSV1 SAVING     FLOW-JA-FACE ON UNIT   1016 AT TIME STEP      5, STRESS PERIOD     19
 UBDSV06 SAVING              RCH IN MODEL TEST_TRANS       PACKAGE TEST_TRANS      CONNECTED TO MODEL TEST_TRANS       PACKAGE RCHA             ON UNIT   1016 AT TIME STEP      5, STRESS PERIOD     19
 UBDSV06 SAVING              CHD IN MODEL TEST_TRANS       PACKAGE TEST_TRANS      CONNECTED TO MODEL TEST_TRANS       PACKAGE CHD              ON UNIT   1016 AT TIME STEP      5, STRESS PERIOD     19

 HEAD WILL BE SAVED ON UNIT 1017 AT END OF TIME STEP    5, STRESS PERIOD   19


  VOLUME BUDGET FOR ENTIRE MODEL AT END OF TIME STEP    5, STRESS PERIOD  19
  ---------------------------------------------------------------------------------------------------

     CUMULATIVE VOLUME      L**3       RATES FOR THIS TIME STEP      L**3/T          PACKAGE NAME    
     ------------------                 ------------------------                     ----------------

           IN:                                      IN:
           ---                                      ---
              STO-SS =          26.8456                STO-SS =       7.5379E-02     STORAGE         
              STO-SY =       16906.8979                STO-SY =          46.9575     STORAGE         
                 RCH =       85331.5429                   RCH =          47.6712     RCHA            
                 CHD =         141.1190                   CHD =           0.0000     CHD             

            TOTAL IN =      102406.4054              TOTAL IN =          94.7041

          OUT:                                     OUT:
          ----                                     ----
              STO-SS =          19.5251                STO-SS =       4.0075E-02     STORAGE         
              STO-SY =       12700.0792                STO-SY =          26.7307     STORAGE         
                 RCH =           0.0000                   RCH =           0.0000     RCHA            
                 CHD =       89687.1923                   CHD =          67.9357     CHD             

           TOTAL OUT =      102406.7966             TOTAL OUT =          94.7065

            IN - OUT =          -0.3911              IN - OUT =      -2.3751E-03

 PERCENT DISCREPANCY =          -0.00     PERCENT DISCREPANCY =          -0.00




         TIME SUMMARY AT END OF TIME STEP    5 IN STRESS PERIOD   19
                    SECONDS     MINUTES      HOURS       DAYS        YEARS
                    -----------------------------------------------------------
   TIME STEP LENGTH 2.59200E+05  4320.0      72.000      3.0000     8.21355E-03
 STRESS PERIOD TIME 1.29600E+06  21600.      360.00      15.000     4.10678E-02
         TOTAL TIME 4.54464E+07 7.57440E+05  12624.      526.00      1.4401    
 UBDSV1 SAVING           STO-SS ON UNIT   1016 AT TIME STEP      6, STRESS PERIOD     19
 UBDSV1 SAVING           STO-SY ON UNIT   1016 AT TIME STEP      6, STRESS PERIOD     19
 UBDSV1 SAVING     FLOW-JA-FACE ON UNIT   1016 AT TIME STEP      6, STRESS PERIOD     19
 UBDSV06 SAVING              RCH IN MODEL TEST_TRANS       PACKAGE TEST_TRANS      CONNECTED TO MODEL TEST_TRANS       PACKAGE RCHA             ON UNIT   1016 AT TIME STEP      6, STRESS PERIOD     19
 UBDSV06 SAVING              CHD IN MODEL TEST_TRANS       PACKAGE TEST_TRANS      CONNECTED TO MODEL TEST_TRANS       PACKAGE CHD              ON UNIT   1016 AT TIME STEP      6, STRESS PERIOD     19

 HEAD WILL BE SAVED ON UNIT 1017 AT END OF TIME STEP    6, STRESS PERIOD   19


  VOLUME BUDGET FOR ENTIRE MODEL AT END OF TIME STEP    6, STRESS PERIOD  19
  ---------------------------------------------------------------------------------------------------

     CUMULATIVE VOLUME      L**3       RATES FOR THIS TIME STEP      L**3/T          PACKAGE NAME    
     ------------------                 ------------------------                     ----------------

           IN:                                      IN:
           ---                                      ---
              STO-SS =          27.0592                STO-SS =       7.1209E-02     STORAGE         
              STO-SY =       17040.0481                STO-SY =          44.3834     STORAGE         
                 RCH =       85474.5566                   RCH =          47.6712     RCHA            
                 CHD =         141.1190                   CHD =           0.0000     CHD             

            TOTAL IN =      102682.7830              TOTAL IN =          92.1258

          OUT:                                     OUT:
          ----                                     ----
              STO-SS =          19.6149                STO-SS =       2.9952E-02     STORAGE         
              STO-SY =       12759.8861                STO-SY =          19.9356     STORAGE         
                 RCH =           0.0000                   RCH =           0.0000     RCHA            
                 CHD =       89903.6794                   CHD =          72.1624     CHD             

           TOTAL OUT =      102683.1805             TOTAL OUT =          92.1280

            IN - OUT =          -0.3976              IN - OUT =      -2.1368E-03

 PERCENT DISCREPANCY =          -0.00     PERCENT DISCREPANCY =          -0.00




         TIME SUMMARY AT END OF TIME STEP    6 IN STRESS PERIOD   19
                    SECONDS     MINUTES      HOURS       DAYS        YEARS
                    -----------------------------------------------------------
   TIME STEP LENGTH 2.59200E+05  4320.0      72.000      3.0000     8.21355E-03
 STRESS PERIOD TIME 1.55520E+06  25920.      432.00      18.000     4.92813E-02
         TOTAL TIME 4.57056E+07 7.61760E+05  12696.      529.00      1.4483    
 UBDSV1 SAVING           STO-SS ON UNIT   1016 AT TIME STEP      7, STRESS PERIOD     19
 UBDSV1 SAVING           STO-SY ON UNIT   1016 AT TIME STEP      7, STRESS PERIOD     19
 UBDSV1 SAVING     FLOW-JA-FACE ON UNIT   1016 AT TIME STEP      7, STRESS PERIOD     19
 UBDSV06 SAVING              RCH IN MODEL TEST_TRANS       PACKAGE TEST_TRANS      CONNECTED TO MODEL TEST_TRANS       PACKAGE RCHA             ON UNIT   1016 AT TIME STEP      7, STRESS PERIOD     19
 UBDSV06 SAVING              CHD IN MODEL TEST_TRANS       PACKAGE TEST_TRANS      CONNECTED TO MODEL TEST_TRANS       PACKAGE CHD              ON UNIT   1016 AT TIME STEP      7, STRESS PERIOD     19

 HEAD WILL BE SAVED ON UNIT 1017 AT END OF TIME STEP    7, STRESS PERIOD   19


  VOLUME BUDGET FOR ENTIRE MODEL AT END OF TIME STEP    7, STRESS PERIOD  19
  ---------------------------------------------------------------------------------------------------

     CUMULATIVE VOLUME      L**3       RATES FOR THIS TIME STEP      L**3/T          PACKAGE NAME    
     ------------------                 ------------------------                     ----------------

           IN:                                      IN:
           ---                                      ---
              STO-SS =          27.2621                STO-SS =       6.7638E-02     STORAGE         
              STO-SY =       17166.6045                STO-SY =          42.1855     STORAGE         
                 RCH =       85617.5703                   RCH =          47.6712     RCHA            
                 CHD =         141.1190                   CHD =           0.0000     CHD             

            TOTAL IN =      102952.5560              TOTAL IN =          89.9243

          OUT:                                     OUT:
          ----                                     ----
              STO-SS =          19.6818                STO-SS =       2.2298E-02     STORAGE         
              STO-SY =       12804.3522                STO-SY =          14.8220     STORAGE         
                 RCH =           0.0000                   RCH =           0.0000     RCHA            
                 CHD =       90128.9236                   CHD =          75.0814     CHD             

           TOTAL OUT =      102952.9577             TOTAL OUT =          89.9257

            IN - OUT =          -0.4017              IN - OUT =      -1.3757E-03

 PERCENT DISCREPANCY =          -0.00     PERCENT DISCREPANCY =          -0.00




         TIME SUMMARY AT END OF TIME STEP    7 IN STRESS PERIOD   19
                    SECONDS     MINUTES      HOURS       DAYS        YEARS
                    -----------------------------------------------------------
   TIME STEP LENGTH 2.59200E+05  4320.0      72.000      3.0000     8.21355E-03
 STRESS PERIOD TIME 1.81440E+06  30240.      504.00      21.000     5.74949E-02
         TOTAL TIME 4.59648E+07 7.66080E+05  12768.      532.00      1.4565    
 UBDSV1 SAVING           STO-SS ON UNIT   1016 AT TIME STEP      8, STRESS PERIOD     19
 UBDSV1 SAVING           STO-SY ON UNIT   1016 AT TIME STEP      8, STRESS PERIOD     19
 UBDSV1 SAVING     FLOW-JA-FACE ON UNIT   1016 AT TIME STEP      8, STRESS PERIOD     19
 UBDSV06 SAVING              RCH IN MODEL TEST_TRANS       PACKAGE TEST_TRANS      CONNECTED TO MODEL TEST_TRANS       PACKAGE RCHA             ON UNIT   1016 AT TIME STEP      8, STRESS PERIOD     19
 UBDSV06 SAVING              CHD IN MODEL TEST_TRANS       PACKAGE TEST_TRANS      CONNECTED TO MODEL TEST_TRANS       PACKAGE CHD              ON UNIT   1016 AT TIME STEP      8, STRESS PERIOD     19

 HEAD WILL BE SAVED ON UNIT 1017 AT END OF TIME STEP    8, STRESS PERIOD   19


  VOLUME BUDGET FOR ENTIRE MODEL AT END OF TIME STEP    8, STRESS PERIOD  19
  ---------------------------------------------------------------------------------------------------

     CUMULATIVE VOLUME      L**3       RATES FOR THIS TIME STEP      L**3/T          PACKAGE NAME    
     ------------------                 ------------------------                     ----------------

           IN:                                      IN:
           ---                                      ---
              STO-SS =          27.4559                STO-SS =       6.4594E-02     STORAGE         
              STO-SY =       17287.5590                STO-SY =          40.3181     STORAGE         
                 RCH =       85760.5840                   RCH =          47.6712     RCHA            
                 CHD =         141.1190                   CHD =           0.0000     CHD             

            TOTAL IN =      103216.7179              TOTAL IN =          88.0540

          OUT:                                     OUT:
          ----                                     ----
              STO-SS =          19.7310                STO-SS =       1.6377E-02     STORAGE         
              STO-SY =       12836.9906                STO-SY =          10.8795     STORAGE         
                 RCH =           0.0000                   RCH =           0.0000     RCHA            
                 CHD =       90360.4006                   CHD =          77.1590     CHD             

           TOTAL OUT =      103217.1221             TOTAL OUT =          88.0548

            IN - OUT =          -0.4042              IN - OUT =      -8.4397E-04

 PERCENT DISCREPANCY =          -0.00     PERCENT DISCREPANCY =          -0.00




         TIME SUMMARY AT END OF TIME STEP    8 IN STRESS PERIOD   19
                    SECONDS     MINUTES      HOURS       DAYS        YEARS
                    -----------------------------------------------------------
   TIME STEP LENGTH 2.59200E+05  4320.0      72.000      3.0000     8.21355E-03
 STRESS PERIOD TIME 2.07360E+06  34560.      576.00      24.000     6.57084E-02
         TOTAL TIME 4.62240E+07 7.70400E+05  12840.      535.00      1.4648    
 UBDSV1 SAVING           STO-SS ON UNIT   1016 AT TIME STEP      9, STRESS PERIOD     19
 UBDSV1 SAVING           STO-SY ON UNIT   1016 AT TIME STEP      9, STRESS PERIOD     19
 UBDSV1 SAVING     FLOW-JA-FACE ON UNIT   1016 AT TIME STEP      9, STRESS PERIOD     19
 UBDSV06 SAVING              RCH IN MODEL TEST_TRANS       PACKAGE TEST_TRANS      CONNECTED TO MODEL TEST_TRANS       PACKAGE RCHA             ON UNIT   1016 AT TIME STEP      9, STRESS PERIOD     19
 UBDSV06 SAVING              CHD IN MODEL TEST_TRANS       PACKAGE TEST_TRANS      CONNECTED TO MODEL TEST_TRANS       PACKAGE CHD              ON UNIT   1016 AT TIME STEP      9, STRESS PERIOD     19

 HEAD WILL BE SAVED ON UNIT 1017 AT END OF TIME STEP    9, STRESS PERIOD   19


  VOLUME BUDGET FOR ENTIRE MODEL AT END OF TIME STEP    9, STRESS PERIOD  19
  ---------------------------------------------------------------------------------------------------

     CUMULATIVE VOLUME      L**3       RATES FOR THIS TIME STEP      L**3/T          PACKAGE NAME    
     ------------------                 ------------------------                     ----------------

           IN:                                      IN:
           ---                                      ---
              STO-SS =          27.6419                STO-SS =       6.1999E-02     STORAGE         
              STO-SY =       17403.7531                STO-SY =          38.7314     STORAGE         
                 RCH =       85903.5977                   RCH =          47.6712     RCHA            
                 CHD =         141.1190                   CHD =           0.0000     CHD             

            TOTAL IN =      103476.1118              TOTAL IN =          86.4646

          OUT:                                     OUT:
          ----                                     ----
              STO-SS =          19.7662                STO-SS =       1.1730E-02     STORAGE         
              STO-SY =       12860.3708                STO-SY =           7.7934     STORAGE         
                 RCH =           0.0000                   RCH =           0.0000     RCHA            
                 CHD =       90596.3803                   CHD =          78.6599     CHD             

           TOTAL OUT =      103476.5173             TOTAL OUT =          86.4651

            IN - OUT =          -0.4055              IN - OUT =      -4.4018E-04

 PERCENT DISCREPANCY =          -0.00     PERCENT DISCREPANCY =          -0.00




         TIME SUMMARY AT END OF TIME STEP    9 IN STRESS PERIOD   19
                    SECONDS     MINUTES      HOURS       DAYS        YEARS
                    -----------------------------------------------------------
   TIME STEP LENGTH 2.59200E+05  4320.0      72.000      3.0000     8.21355E-03
 STRESS PERIOD TIME 2.33280E+06  38880.      648.00      27.000     7.39220E-02
         TOTAL TIME 4.64832E+07 7.74720E+05  12912.      538.00      1.4730    
 UBDSV1 SAVING           STO-SS ON UNIT   1016 AT TIME STEP     10, STRESS PERIOD     19
 UBDSV1 SAVING           STO-SY ON UNIT   1016 AT TIME STEP     10, STRESS PERIOD     19
 UBDSV1 SAVING     FLOW-JA-FACE ON UNIT   1016 AT TIME STEP     10, STRESS PERIOD     19
 UBDSV06 SAVING              RCH IN MODEL TEST_TRANS       PACKAGE TEST_TRANS      CONNECTED TO MODEL TEST_TRANS       PACKAGE RCHA             ON UNIT   1016 AT TIME STEP     10, STRESS PERIOD     19
 UBDSV06 SAVING              CHD IN MODEL TEST_TRANS       PACKAGE TEST_TRANS      CONNECTED TO MODEL TEST_TRANS       PACKAGE CHD              ON UNIT   1016 AT TIME STEP     10, STRESS PERIOD     19

 HEAD WILL BE SAVED ON UNIT 1017 AT END OF TIME STEP   10, STRESS PERIOD   19


  VOLUME BUDGET FOR ENTIRE MODEL AT END OF TIME STEP   10, STRESS PERIOD  19
  ---------------------------------------------------------------------------------------------------

     CUMULATIVE VOLUME      L**3       RATES FOR THIS TIME STEP      L**3/T          PACKAGE NAME    
     ------------------                 ------------------------                     ----------------

           IN:                                      IN:
           ---                                      ---
              STO-SS =          27.8217                STO-SS =       5.9936E-02     STORAGE         
              STO-SY =       17516.1905                STO-SY =          37.4791     STORAGE         
                 RCH =       86046.6114                   RCH =          47.6712     RCHA            
                 CHD =         141.1190                   CHD =           0.0000     CHD             

            TOTAL IN =      103731.7426              TOTAL IN =          85.2103

          OUT:                                     OUT:
          ----                                     ----
              STO-SS =          19.7908                STO-SS =       8.2116E-03     STORAGE         
              STO-SY =       12876.7447                STO-SY =           5.4580     STORAGE         
                 RCH =           0.0000                   RCH =           0.0000     RCHA            
                 CHD =       90835.6437                   CHD =          79.7544     CHD             

           TOTAL OUT =      103732.1792             TOTAL OUT =          85.2206

            IN - OUT =          -0.4366              IN - OUT =      -1.0343E-02

 PERCENT DISCREPANCY =          -0.00     PERCENT DISCREPANCY =          -0.01




         TIME SUMMARY AT END OF TIME STEP   10 IN STRESS PERIOD   19
                    SECONDS     MINUTES      HOURS       DAYS        YEARS
                    -----------------------------------------------------------
   TIME STEP LENGTH 2.59200E+05  4320.0      72.000      3.0000     8.21355E-03
 STRESS PERIOD TIME 2.59200E+06  43200.      720.00      30.000     8.21355E-02
         TOTAL TIME 4.67424E+07 7.79040E+05  12984.      541.00      1.4812    

 OUTPUT CONTROL FOR STRESS PERIOD 20 IS REPEATED USING SETTINGS FROM A PREVIOUS STRESS PERIOD.


 STRESS PERIOD 20 IS TRANSIENT


                 RECHARGE =  0.1095890E-02
 UBDSV1 SAVING           STO-SS ON UNIT   1016 AT TIME STEP      1, STRESS PERIOD     20
 UBDSV1 SAVING           STO-SY ON UNIT   1016 AT TIME STEP      1, STRESS PERIOD     20
 UBDSV1 SAVING     FLOW-JA-FACE ON UNIT   1016 AT TIME STEP      1, STRESS PERIOD     20
 UBDSV06 SAVING              RCH IN MODEL TEST_TRANS       PACKAGE TEST_TRANS      CONNECTED TO MODEL TEST_TRANS       PACKAGE RCHA             ON UNIT   1016 AT TIME STEP      1, STRESS PERIOD     20
 UBDSV06 SAVING              CHD IN MODEL TEST_TRANS       PACKAGE TEST_TRANS      CONNECTED TO MODEL TEST_TRANS       PACKAGE CHD              ON UNIT   1016 AT TIME STEP      1, STRESS PERIOD     20

 HEAD WILL BE SAVED ON UNIT 1017 AT END OF TIME STEP    1, STRESS PERIOD   20


  VOLUME BUDGET FOR ENTIRE MODEL AT END OF TIME STEP    1, STRESS PERIOD  20
  ---------------------------------------------------------------------------------------------------

     CUMULATIVE VOLUME      L**3       RATES FOR THIS TIME STEP      L**3/T          PACKAGE NAME    
     ------------------                 ------------------------                     ----------------

           IN:                                      IN:
           ---                                      ---
              STO-SS =          28.5776                STO-SS =           0.2520     STORAGE         
              STO-SY =       18028.3984                STO-SY =         170.7360     STORAGE         
                 RCH =       86332.6387                   RCH =          95.3424     RCHA            
                 CHD =         141.1190                   CHD =           0.0000     CHD             

            TOTAL IN =      104530.7337              TOTAL IN =         266.3304

          OUT:                                     OUT:
          ----                                     ----
              STO-SS =          19.8120                STO-SS =       7.0645E-03     STORAGE         
              STO-SY =       12890.3774                STO-SY =           4.5442     STORAGE         
                 RCH =           0.0000                   RCH =           0.0000     RCHA            
                 CHD =       91620.9833                   CHD =         261.7799     CHD             

           TOTAL OUT =      104531.1727             TOTAL OUT =         266.3312

            IN - OUT =          -0.4390              IN - OUT =      -8.0790E-04

 PERCENT DISCREPANCY =          -0.00     PERCENT DISCREPANCY =          -0.00




         TIME SUMMARY AT END OF TIME STEP    1 IN STRESS PERIOD   20
                    SECONDS     MINUTES      HOURS       DAYS        YEARS
                    -----------------------------------------------------------
   TIME STEP LENGTH 2.59200E+05  4320.0      72.000      3.0000     8.21355E-03
 STRESS PERIOD TIME 2.59200E+05  4320.0      72.000      3.0000     8.21355E-03
         TOTAL TIME 4.70016E+07 7.83360E+05  13056.      544.00      1.4894    
 UBDSV1 SAVING           STO-SS ON UNIT   1016 AT TIME STEP      2, STRESS PERIOD     20
 UBDSV1 SAVING           STO-SY ON UNIT   1016 AT TIME STEP      2, STRESS PERIOD     20
 UBDSV1 SAVING     FLOW-JA-FACE ON UNIT   1016 AT TIME STEP      2, STRESS PERIOD     20
 UBDSV06 SAVING              RCH IN MODEL TEST_TRANS       PACKAGE TEST_TRANS      CONNECTED TO MODEL TEST_TRANS       PACKAGE RCHA             ON UNIT   1016 AT TIME STEP      2, STRESS PERIOD     20
 UBDSV06 SAVING              CHD IN MODEL TEST_TRANS       PACKAGE TEST_TRANS      CONNECTED TO MODEL TEST_TRANS       PACKAGE CHD              ON UNIT   1016 AT TIME STEP      2, STRESS PERIOD     20

 HEAD WILL BE SAVED ON UNIT 1017 AT END OF TIME STEP    2, STRESS PERIOD   20


  VOLUME BUDGET FOR ENTIRE MODEL AT END OF TIME STEP    2, STRESS PERIOD  20
  ---------------------------------------------------------------------------------------------------

     CUMULATIVE VOLUME      L**3       RATES FOR THIS TIME STEP      L**3/T          PACKAGE NAME    
     ------------------                 ------------------------                     ----------------

           IN:                                      IN:
           ---                                      ---
              STO-SS =          29.0310                STO-SS =           0.1511     STORAGE         
              STO-SY =       18333.9954                STO-SY =         101.8657     STORAGE         
                 RCH =       86618.6660                   RCH =          95.3424     RCHA            
                 CHD =         141.1190                   CHD =           0.0000     CHD             

            TOTAL IN =      105122.8114              TOTAL IN =         197.3592

          OUT:                                     OUT:
          ----                                     ----
              STO-SS =          19.8152                STO-SS =       1.0682E-03     STORAGE         
              STO-SY =       12892.4247                STO-SY =           0.6824     STORAGE         
                 RCH =           0.0000                   RCH =           0.0000     RCHA            
                 CHD =       92211.0168                   CHD =         196.6778     CHD             

           TOTAL OUT =      105123.2567             TOTAL OUT =         197.3613

            IN - OUT =          -0.4453              IN - OUT =      -2.1094E-03

 PERCENT DISCREPANCY =          -0.00     PERCENT DISCREPANCY =          -0.00




         TIME SUMMARY AT END OF TIME STEP    2 IN STRESS PERIOD   20
                    SECONDS     MINUTES      HOURS       DAYS        YEARS
                    -----------------------------------------------------------
   TIME STEP LENGTH 2.59200E+05  4320.0      72.000      3.0000     8.21355E-03
 STRESS PERIOD TIME 5.18400E+05  8640.0      144.00      6.0000     1.64271E-02
         TOTAL TIME 4.72608E+07 7.87680E+05  13128.      547.00      1.4976    
 UBDSV1 SAVING           STO-SS ON UNIT   1016 AT TIME STEP      3, STRESS PERIOD     20
 UBDSV1 SAVING           STO-SY ON UNIT   1016 AT TIME STEP      3, STRESS PERIOD     20
 UBDSV1 SAVING     FLOW-JA-FACE ON UNIT   1016 AT TIME STEP      3, STRESS PERIOD     20
 UBDSV06 SAVING              RCH IN MODEL TEST_TRANS       PACKAGE TEST_TRANS      CONNECTED TO MODEL TEST_TRANS       PACKAGE RCHA             ON UNIT   1016 AT TIME STEP      3, STRESS PERIOD     20
 UBDSV06 SAVING              CHD IN MODEL TEST_TRANS       PACKAGE TEST_TRANS      CONNECTED TO MODEL TEST_TRANS       PACKAGE CHD              ON UNIT   1016 AT TIME STEP      3, STRESS PERIOD     20

 HEAD WILL BE SAVED ON UNIT 1017 AT END OF TIME STEP    3, STRESS PERIOD   20


  VOLUME BUDGET FOR ENTIRE MODEL AT END OF TIME STEP    3, STRESS PERIOD  20
  ---------------------------------------------------------------------------------------------------

     CUMULATIVE VOLUME      L**3       RATES FOR THIS TIME STEP      L**3/T          PACKAGE NAME    
     ------------------                 ------------------------                     ----------------

           IN:                                      IN:
           ---                                      ---
              STO-SS =          29.3730                STO-SS =           0.1140     STORAGE         
              STO-SY =       18562.5910                STO-SY =          76.1985     STORAGE         
                 RCH =       86904.6933                   RCH =          95.3424     RCHA            
                 CHD =         141.1190                   CHD =           0.0000     CHD             

            TOTAL IN =      105637.7763              TOTAL IN =         171.6550

          OUT:                                     OUT:
          ----                                     ----
              STO-SS =          19.8152                STO-SS =           0.0000     STORAGE         
              STO-SY =       12892.4247                STO-SY =           0.0000     STORAGE         
                 RCH =           0.0000                   RCH =           0.0000     RCHA            
                 CHD =       92725.9759                   CHD =         171.6530     CHD             

           TOTAL OUT =      105638.2157             TOTAL OUT =         171.6530

            IN - OUT =          -0.4394              IN - OUT =       1.9807E-03

 PERCENT DISCREPANCY =          -0.00     PERCENT DISCREPANCY =           0.00




         TIME SUMMARY AT END OF TIME STEP    3 IN STRESS PERIOD   20
                    SECONDS     MINUTES      HOURS       DAYS        YEARS
                    -----------------------------------------------------------
   TIME STEP LENGTH 2.59200E+05  4320.0      72.000      3.0000     8.21355E-03
 STRESS PERIOD TIME 7.77600E+05  12960.      216.00      9.0000     2.46407E-02
         TOTAL TIME 4.75200E+07 7.92000E+05  13200.      550.00      1.5058    
 UBDSV1 SAVING           STO-SS ON UNIT   1016 AT TIME STEP      4, STRESS PERIOD     20
 UBDSV1 SAVING           STO-SY ON UNIT   1016 AT TIME STEP      4, STRESS PERIOD     20
 UBDSV1 SAVING     FLOW-JA-FACE ON UNIT   1016 AT TIME STEP      4, STRESS PERIOD     20
 UBDSV06 SAVING              RCH IN MODEL TEST_TRANS       PACKAGE TEST_TRANS      CONNECTED TO MODEL TEST_TRANS       PACKAGE RCHA             ON UNIT   1016 AT TIME STEP      4, STRESS PERIOD     20
 UBDSV06 SAVING              CHD IN MODEL TEST_TRANS       PACKAGE TEST_TRANS      CONNECTED TO MODEL TEST_TRANS       PACKAGE CHD              ON UNIT   1016 AT TIME STEP      4, STRESS PERIOD     20

 HEAD WILL BE SAVED ON UNIT 1017 AT END OF TIME STEP    4, STRESS PERIOD   20


  VOLUME BUDGET FOR ENTIRE MODEL AT END OF TIME STEP    4, STRESS PERIOD  20
  ---------------------------------------------------------------------------------------------------

     CUMULATIVE VOLUME      L**3       RATES FOR THIS TIME STEP      L**3/T          PACKAGE NAME    
     ------------------                 ------------------------                     ----------------

           IN:                                      IN:
           ---                                      ---
              STO-SS =          29.6592                STO-SS =       9.5379E-02     STORAGE         
              STO-SY =       18752.4660                STO-SY =          63.2916     STORAGE         
                 RCH =       87190.7206                   RCH =          95.3424     RCHA            
                 CHD =         141.1190                   CHD =           0.0000     CHD             

            TOTAL IN =      106113.9647              TOTAL IN =         158.7295

          OUT:                                     OUT:
          ----                                     ----
              STO-SS =          19.8152                STO-SS =           0.0000     STORAGE         
              STO-SY =       12892.4247                STO-SY =           0.0000     STORAGE         
                 RCH =           0.0000                   RCH =           0.0000     RCHA            
                 CHD =       93202.1538                   CHD =         158.7260     CHD             

           TOTAL OUT =      106114.3936             TOTAL OUT =         158.7260

            IN - OUT =          -0.4289              IN - OUT =       3.4901E-03

 PERCENT DISCREPANCY =          -0.00     PERCENT DISCREPANCY =           0.00




         TIME SUMMARY AT END OF TIME STEP    4 IN STRESS PERIOD   20
                    SECONDS     MINUTES      HOURS       DAYS        YEARS
                    -----------------------------------------------------------
   TIME STEP LENGTH 2.59200E+05  4320.0      72.000      3.0000     8.21355E-03
 STRESS PERIOD TIME 1.03680E+06  17280.      288.00      12.000     3.28542E-02
         TOTAL TIME 4.77792E+07 7.96320E+05  13272.      553.00      1.5140    
 UBDSV1 SAVING           STO-SS ON UNIT   1016 AT TIME STEP      5, STRESS PERIOD     20
 UBDSV1 SAVING           STO-SY ON UNIT   1016 AT TIME STEP      5, STRESS PERIOD     20
 UBDSV1 SAVING     FLOW-JA-FACE ON UNIT   1016 AT TIME STEP      5, STRESS PERIOD     20
 UBDSV06 SAVING              RCH IN MODEL TEST_TRANS       PACKAGE TEST_TRANS      CONNECTED TO MODEL TEST_TRANS       PACKAGE RCHA             ON UNIT   1016 AT TIME STEP      5, STRESS PERIOD     20
 UBDSV06 SAVING              CHD IN MODEL TEST_TRANS       PACKAGE TEST_TRANS      CONNECTED TO MODEL TEST_TRANS       PACKAGE CHD              ON UNIT   1016 AT TIME STEP      5, STRESS PERIOD     20

 HEAD WILL BE SAVED ON UNIT 1017 AT END OF TIME STEP    5, STRESS PERIOD   20


  VOLUME BUDGET FOR ENTIRE MODEL AT END OF TIME STEP    5, STRESS PERIOD  20
  ---------------------------------------------------------------------------------------------------

     CUMULATIVE VOLUME      L**3       RATES FOR THIS TIME STEP      L**3/T          PACKAGE NAME    
     ------------------                 ------------------------                     ----------------

           IN:                                      IN:
           ---                                      ---
              STO-SS =          29.9108                STO-SS =       8.3879E-02     STORAGE         
              STO-SY =       18918.5011                STO-SY =          55.3451     STORAGE         
                 RCH =       87476.7479                   RCH =          95.3424     RCHA            
                 CHD =         141.1190                   CHD =           0.0000     CHD             

            TOTAL IN =      106566.2788              TOTAL IN =         150.7714

          OUT:                                     OUT:
          ----                                     ----
              STO-SS =          19.8152                STO-SS =           0.0000     STORAGE         
              STO-SY =       12892.4247                STO-SY =           0.0000     STORAGE         
                 RCH =           0.0000                   RCH =           0.0000     RCHA            
                 CHD =       93654.4579                   CHD =         150.7681     CHD             

           TOTAL OUT =      106566.6978             TOTAL OUT =         150.7681

            IN - OUT =          -0.4190              IN - OUT =       3.3065E-03

 PERCENT DISCREPANCY =          -0.00     PERCENT DISCREPANCY =           0.00




         TIME SUMMARY AT END OF TIME STEP    5 IN STRESS PERIOD   20
                    SECONDS     MINUTES      HOURS       DAYS        YEARS
                    -----------------------------------------------------------
   TIME STEP LENGTH 2.59200E+05  4320.0      72.000      3.0000     8.21355E-03
 STRESS PERIOD TIME 1.29600E+06  21600.      360.00      15.000     4.10678E-02
         TOTAL TIME 4.80384E+07 8.00640E+05  13344.      556.00      1.5222    
 UBDSV1 SAVING           STO-SS ON UNIT   1016 AT TIME STEP      6, STRESS PERIOD     20
 UBDSV1 SAVING           STO-SY ON UNIT   1016 AT TIME STEP      6, STRESS PERIOD     20
 UBDSV1 SAVING     FLOW-JA-FACE ON UNIT   1016 AT TIME STEP      6, STRESS PERIOD     20
 UBDSV06 SAVING              RCH IN MODEL TEST_TRANS       PACKAGE TEST_TRANS      CONNECTED TO MODEL TEST_TRANS       PACKAGE RCHA             ON UNIT   1016 AT TIME STEP      6, STRESS PERIOD     20
 UBDSV06 SAVING              CHD IN MODEL TEST_TRANS       PACKAGE TEST_TRANS      CONNECTED TO MODEL TEST_TRANS       PACKAGE CHD              ON UNIT   1016 AT TIME STEP      6, STRESS PERIOD     20

 HEAD WILL BE SAVED ON UNIT 1017 AT END OF TIME STEP    6, STRESS PERIOD   20


  VOLUME BUDGET FOR ENTIRE MODEL AT END OF TIME STEP    6, STRESS PERIOD  20
  ---------------------------------------------------------------------------------------------------

     CUMULATIVE VOLUME      L**3       RATES FOR THIS TIME STEP      L**3/T          PACKAGE NAME    
     ------------------                 ------------------------                     ----------------

           IN:                                      IN:
           ---                                      ---
              STO-SS =          30.1387                STO-SS =       7.5975E-02     STORAGE         
              STO-SY =       19068.2039                STO-SY =          49.9009     STORAGE         
                 RCH =       87762.7752                   RCH =          95.3424     RCHA            
                 CHD =         141.1190                   CHD =           0.0000     CHD             

            TOTAL IN =      107002.2368              TOTAL IN =         145.3193

          OUT:                                     OUT:
          ----                                     ----
              STO-SS =          19.8152                STO-SS =           0.0000     STORAGE         
              STO-SY =       12892.4247                STO-SY =           0.0000     STORAGE         
                 RCH =           0.0000                   RCH =           0.0000     RCHA            
                 CHD =       94090.4074                   CHD =         145.3165     CHD             

           TOTAL OUT =      107002.6473             TOTAL OUT =         145.3165

            IN - OUT =          -0.4105              IN - OUT =       2.8171E-03

 PERCENT DISCREPANCY =          -0.00     PERCENT DISCREPANCY =           0.00




         TIME SUMMARY AT END OF TIME STEP    6 IN STRESS PERIOD   20
                    SECONDS     MINUTES      HOURS       DAYS        YEARS
                    -----------------------------------------------------------
   TIME STEP LENGTH 2.59200E+05  4320.0      72.000      3.0000     8.21355E-03
 STRESS PERIOD TIME 1.55520E+06  25920.      432.00      18.000     4.92813E-02
         TOTAL TIME 4.82976E+07 8.04960E+05  13416.      559.00      1.5305    
 UBDSV1 SAVING           STO-SS ON UNIT   1016 AT TIME STEP      7, STRESS PERIOD     20
 UBDSV1 SAVING           STO-SY ON UNIT   1016 AT TIME STEP      7, STRESS PERIOD     20
 UBDSV1 SAVING     FLOW-JA-FACE ON UNIT   1016 AT TIME STEP      7, STRESS PERIOD     20
 UBDSV06 SAVING              RCH IN MODEL TEST_TRANS       PACKAGE TEST_TRANS      CONNECTED TO MODEL TEST_TRANS       PACKAGE RCHA             ON UNIT   1016 AT TIME STEP      7, STRESS PERIOD     20
 UBDSV06 SAVING              CHD IN MODEL TEST_TRANS       PACKAGE TEST_TRANS      CONNECTED TO MODEL TEST_TRANS       PACKAGE CHD              ON UNIT   1016 AT TIME STEP      7, STRESS PERIOD     20

 HEAD WILL BE SAVED ON UNIT 1017 AT END OF TIME STEP    7, STRESS PERIOD   20


  VOLUME BUDGET FOR ENTIRE MODEL AT END OF TIME STEP    7, STRESS PERIOD  20
  ---------------------------------------------------------------------------------------------------

     CUMULATIVE VOLUME      L**3       RATES FOR THIS TIME STEP      L**3/T          PACKAGE NAME    
     ------------------                 ------------------------                     ----------------

           IN:                                      IN:
           ---                                      ---
              STO-SS =          30.3492                STO-SS =       7.0149E-02     STORAGE         
              STO-SY =       19205.9123                STO-SY =          45.9028     STORAGE         
                 RCH =       88048.8025                   RCH =          95.3424     RCHA            
                 CHD =         141.1190                   CHD =           0.0000     CHD             

            TOTAL IN =      107426.1829              TOTAL IN =         141.3154

          OUT:                                     OUT:
          ----                                     ----
              STO-SS =          19.8152                STO-SS =           0.0000     STORAGE         
              STO-SY =       12892.4247                STO-SY =           0.0000     STORAGE         
                 RCH =           0.0000                   RCH =           0.0000     RCHA            
                 CHD =       94514.3347                   CHD =         141.3091     CHD             

           TOTAL OUT =      107426.5745             TOTAL OUT =         141.3091

            IN - OUT =          -0.3916              IN - OUT =       6.3124E-03

 PERCENT DISCREPANCY =          -0.00     PERCENT DISCREPANCY =           0.00




         TIME SUMMARY AT END OF TIME STEP    7 IN STRESS PERIOD   20
                    SECONDS     MINUTES      HOURS       DAYS        YEARS
                    -----------------------------------------------------------
   TIME STEP LENGTH 2.59200E+05  4320.0      72.000      3.0000     8.21355E-03
 STRESS PERIOD TIME 1.81440E+06  30240.      504.00      21.000     5.74949E-02
         TOTAL TIME 4.85568E+07 8.09280E+05  13488.      562.00      1.5387    
 UBDSV1 SAVING           STO-SS ON UNIT   1016 AT TIME STEP      8, STRESS PERIOD     20
 UBDSV1 SAVING           STO-SY ON UNIT   1016 AT TIME STEP      8, STRESS PERIOD     20
 UBDSV1 SAVING     FLOW-JA-FACE ON UNIT   1016 AT TIME STEP      8, STRESS PERIOD     20
 UBDSV06 SAVING              RCH IN MODEL TEST_TRANS       PACKAGE TEST_TRANS      CONNECTED TO MODEL TEST_TRANS       PACKAGE RCHA             ON UNIT   1016 AT TIME STEP      8, STRESS PERIOD     20
 UBDSV06 SAVING              CHD IN MODEL TEST_TRANS       PACKAGE TEST_TRANS      CONNECTED TO MODEL TEST_TRANS       PACKAGE CHD              ON UNIT   1016 AT TIME STEP      8, STRESS PERIOD     20

 HEAD WILL BE SAVED ON UNIT 1017 AT END OF TIME STEP    8, STRESS PERIOD   20


  VOLUME BUDGET FOR ENTIRE MODEL AT END OF TIME STEP    8, STRESS PERIOD  20
  ---------------------------------------------------------------------------------------------------

     CUMULATIVE VOLUME      L**3       RATES FOR THIS TIME STEP      L**3/T          PACKAGE NAME    
     ------------------                 ------------------------                     ----------------

           IN:                                      IN:
           ---                                      ---
              STO-SS =          30.5460                STO-SS =       6.5623E-02     STORAGE         
              STO-SY =       19334.3423                STO-SY =          42.8100     STORAGE         
                 RCH =       88334.8298                   RCH =          95.3424     RCHA            
                 CHD =         141.1190                   CHD =           0.0000     CHD             

            TOTAL IN =      107840.8371              TOTAL IN =         138.2181

          OUT:                                     OUT:
          ----                                     ----
              STO-SS =          19.8152                STO-SS =           0.0000     STORAGE         
              STO-SY =       12892.4247                STO-SY =           0.0000     STORAGE         
                 RCH =           0.0000                   RCH =           0.0000     RCHA            
                 CHD =       94928.9731                   CHD =         138.2128     CHD             

           TOTAL OUT =      107841.2130             TOTAL OUT =         138.2128

            IN - OUT =          -0.3759              IN - OUT =       5.2266E-03

 PERCENT DISCREPANCY =          -0.00     PERCENT DISCREPANCY =           0.00




         TIME SUMMARY AT END OF TIME STEP    8 IN STRESS PERIOD   20
                    SECONDS     MINUTES      HOURS       DAYS        YEARS
                    -----------------------------------------------------------
   TIME STEP LENGTH 2.59200E+05  4320.0      72.000      3.0000     8.21355E-03
 STRESS PERIOD TIME 2.07360E+06  34560.      576.00      24.000     6.57084E-02
         TOTAL TIME 4.88160E+07 8.13600E+05  13560.      565.00      1.5469    
 UBDSV1 SAVING           STO-SS ON UNIT   1016 AT TIME STEP      9, STRESS PERIOD     20
 UBDSV1 SAVING           STO-SY ON UNIT   1016 AT TIME STEP      9, STRESS PERIOD     20
 UBDSV1 SAVING     FLOW-JA-FACE ON UNIT   1016 AT TIME STEP      9, STRESS PERIOD     20
 UBDSV06 SAVING              RCH IN MODEL TEST_TRANS       PACKAGE TEST_TRANS      CONNECTED TO MODEL TEST_TRANS       PACKAGE RCHA             ON UNIT   1016 AT TIME STEP      9, STRESS PERIOD     20
 UBDSV06 SAVING              CHD IN MODEL TEST_TRANS       PACKAGE TEST_TRANS      CONNECTED TO MODEL TEST_TRANS       PACKAGE CHD              ON UNIT   1016 AT TIME STEP      9, STRESS PERIOD     20

 HEAD WILL BE SAVED ON UNIT 1017 AT END OF TIME STEP    9, STRESS PERIOD   20


  VOLUME BUDGET FOR ENTIRE MODEL AT END OF TIME STEP    9, STRESS PERIOD  20
  ---------------------------------------------------------------------------------------------------

     CUMULATIVE VOLUME      L**3       RATES FOR THIS TIME STEP      L**3/T          PACKAGE NAME    
     ------------------                 ------------------------                     ----------------

           IN:                                      IN:
           ---                                      ---
              STO-SS =          30.7320                STO-SS =       6.1978E-02     STORAGE         
              STO-SY =       19455.3307                STO-SY =          40.3295     STORAGE         
                 RCH =       88620.8570                   RCH =          95.3424     RCHA            
                 CHD =         141.1190                   CHD =           0.0000     CHD             

            TOTAL IN =      108248.0387              TOTAL IN =         135.7339

          OUT:                                     OUT:
          ----                                     ----
              STO-SS =          19.8152                STO-SS =           0.0000     STORAGE         
              STO-SY =       12892.4247                STO-SY =           0.0000     STORAGE         
                 RCH =           0.0000                   RCH =           0.0000     RCHA            
                 CHD =       95336.1615                   CHD =         135.7294     CHD             

           TOTAL OUT =      108248.4013             TOTAL OUT =         135.7294

            IN - OUT =          -0.3626              IN - OUT =       4.4255E-03

 PERCENT DISCREPANCY =          -0.00     PERCENT DISCREPANCY =           0.00




         TIME SUMMARY AT END OF TIME STEP    9 IN STRESS PERIOD   20
                    SECONDS     MINUTES      HOURS       DAYS        YEARS
                    -----------------------------------------------------------
   TIME STEP LENGTH 2.59200E+05  4320.0      72.000      3.0000     8.21355E-03
 STRESS PERIOD TIME 2.33280E+06  38880.      648.00      27.000     7.39220E-02
         TOTAL TIME 4.90752E+07 8.17920E+05  13632.      568.00      1.5551    
 UBDSV1 SAVING           STO-SS ON UNIT   1016 AT TIME STEP     10, STRESS PERIOD     20
 UBDSV1 SAVING           STO-SY ON UNIT   1016 AT TIME STEP     10, STRESS PERIOD     20
 UBDSV1 SAVING     FLOW-JA-FACE ON UNIT   1016 AT TIME STEP     10, STRESS PERIOD     20
 UBDSV06 SAVING              RCH IN MODEL TEST_TRANS       PACKAGE TEST_TRANS      CONNECTED TO MODEL TEST_TRANS       PACKAGE RCHA             ON UNIT   1016 AT TIME STEP     10, STRESS PERIOD     20
 UBDSV06 SAVING              CHD IN MODEL TEST_TRANS       PACKAGE TEST_TRANS      CONNECTED TO MODEL TEST_TRANS       PACKAGE CHD              ON UNIT   1016 AT TIME STEP     10, STRESS PERIOD     20

 HEAD WILL BE SAVED ON UNIT 1017 AT END OF TIME STEP   10, STRESS PERIOD   20


  VOLUME BUDGET FOR ENTIRE MODEL AT END OF TIME STEP   10, STRESS PERIOD  20
  ---------------------------------------------------------------------------------------------------

     CUMULATIVE VOLUME      L**3       RATES FOR THIS TIME STEP      L**3/T          PACKAGE NAME    
     ------------------                 ------------------------                     ----------------

           IN:                                      IN:
           ---                                      ---
              STO-SS =          30.9088                STO-SS =       5.8956E-02     STORAGE         
              STO-SY =       19570.1742                STO-SY =          38.2812     STORAGE         
                 RCH =       88906.8843                   RCH =          95.3424     RCHA            
                 CHD =         141.1190                   CHD =           0.0000     CHD             

            TOTAL IN =      108649.0864              TOTAL IN =         133.6826

          OUT:                                     OUT:
          ----                                     ----
              STO-SS =          19.8152                STO-SS =           0.0000     STORAGE         
              STO-SY =       12892.4247                STO-SY =           0.0000     STORAGE         
                 RCH =           0.0000                   RCH =           0.0000     RCHA            
                 CHD =       95737.1977                   CHD =         133.6787     CHD             

           TOTAL OUT =      108649.4376             TOTAL OUT =         133.6787

            IN - OUT =          -0.3512              IN - OUT =       3.8211E-03

 PERCENT DISCREPANCY =          -0.00     PERCENT DISCREPANCY =           0.00




         TIME SUMMARY AT END OF TIME STEP   10 IN STRESS PERIOD   20
                    SECONDS     MINUTES      HOURS       DAYS        YEARS
                    -----------------------------------------------------------
   TIME STEP LENGTH 2.59200E+05  4320.0      72.000      3.0000     8.21355E-03
 STRESS PERIOD TIME 2.59200E+06  43200.      720.00      30.000     8.21355E-02
         TOTAL TIME 4.93344E+07 8.22240E+05  13704.      571.00      1.5633    

 OUTPUT CONTROL FOR STRESS PERIOD 21 IS REPEATED USING SETTINGS FROM A PREVIOUS STRESS PERIOD.


 STRESS PERIOD 21 IS TRANSIENT


                 RECHARGE =  0.1643840E-02
 UBDSV1 SAVING           STO-SS ON UNIT   1016 AT TIME STEP      1, STRESS PERIOD     21
 UBDSV1 SAVING           STO-SY ON UNIT   1016 AT TIME STEP      1, STRESS PERIOD     21
 UBDSV1 SAVING     FLOW-JA-FACE ON UNIT   1016 AT TIME STEP      1, STRESS PERIOD     21
 UBDSV06 SAVING              RCH IN MODEL TEST_TRANS       PACKAGE TEST_TRANS      CONNECTED TO MODEL TEST_TRANS       PACKAGE RCHA             ON UNIT   1016 AT TIME STEP      1, STRESS PERIOD     21
 UBDSV06 SAVING              CHD IN MODEL TEST_TRANS       PACKAGE TEST_TRANS      CONNECTED TO MODEL TEST_TRANS       PACKAGE CHD              ON UNIT   1016 AT TIME STEP      1, STRESS PERIOD     21

 HEAD WILL BE SAVED ON UNIT 1017 AT END OF TIME STEP    1, STRESS PERIOD   21


  VOLUME BUDGET FOR ENTIRE MODEL AT END OF TIME STEP    1, STRESS PERIOD  21
  ---------------------------------------------------------------------------------------------------

     CUMULATIVE VOLUME      L**3       RATES FOR THIS TIME STEP      L**3/T          PACKAGE NAME    
     ------------------                 ------------------------                     ----------------

           IN:                                      IN:
           ---                                      ---
              STO-SS =          31.0154                STO-SS =       3.5512E-02     STORAGE         
              STO-SY =       19644.1178                STO-SY =          24.6479     STORAGE         
                 RCH =       89335.9266                   RCH =         143.0141     RCHA            
                 CHD =         141.1190                   CHD =           0.0000     CHD             

            TOTAL IN =      109152.1788              TOTAL IN =         167.6975

          OUT:                                     OUT:
          ----                                     ----
              STO-SS =          19.8609                STO-SS =       1.5222E-02     STORAGE         
              STO-SY =       12921.0317                STO-SY =           9.5357     STORAGE         
                 RCH =           0.0000                   RCH =           0.0000     RCHA            
                 CHD =       96211.6639                   CHD =         158.1554     CHD             

           TOTAL OUT =      109152.5565             TOTAL OUT =         167.7063

            IN - OUT =          -0.3777              IN - OUT =      -8.8331E-03

 PERCENT DISCREPANCY =          -0.00     PERCENT DISCREPANCY =          -0.01




         TIME SUMMARY AT END OF TIME STEP    1 IN STRESS PERIOD   21
                    SECONDS     MINUTES      HOURS       DAYS        YEARS
                    -----------------------------------------------------------
   TIME STEP LENGTH 2.59200E+05  4320.0      72.000      3.0000     8.21355E-03
 STRESS PERIOD TIME 2.59200E+05  4320.0      72.000      3.0000     8.21355E-03
         TOTAL TIME 4.95936E+07 8.26560E+05  13776.      574.00      1.5715    
 UBDSV1 SAVING           STO-SS ON UNIT   1016 AT TIME STEP      2, STRESS PERIOD     21
 UBDSV1 SAVING           STO-SY ON UNIT   1016 AT TIME STEP      2, STRESS PERIOD     21
 UBDSV1 SAVING     FLOW-JA-FACE ON UNIT   1016 AT TIME STEP      2, STRESS PERIOD     21
 UBDSV06 SAVING              RCH IN MODEL TEST_TRANS       PACKAGE TEST_TRANS      CONNECTED TO MODEL TEST_TRANS       PACKAGE RCHA             ON UNIT   1016 AT TIME STEP      2, STRESS PERIOD     21
 UBDSV06 SAVING              CHD IN MODEL TEST_TRANS       PACKAGE TEST_TRANS      CONNECTED TO MODEL TEST_TRANS       PACKAGE CHD              ON UNIT   1016 AT TIME STEP      2, STRESS PERIOD     21

 HEAD WILL BE SAVED ON UNIT 1017 AT END OF TIME STEP    2, STRESS PERIOD   21


  VOLUME BUDGET FOR ENTIRE MODEL AT END OF TIME STEP    2, STRESS PERIOD  21
  ---------------------------------------------------------------------------------------------------

     CUMULATIVE VOLUME      L**3       RATES FOR THIS TIME STEP      L**3/T          PACKAGE NAME    
     ------------------                 ------------------------                     ----------------

           IN:                                      IN:
           ---                                      ---
              STO-SS =          31.0822                STO-SS =       2.2284E-02     STORAGE         
              STO-SY =       19689.9732                STO-SY =          15.2851     STORAGE         
                 RCH =       89764.9688                   RCH =         143.0141     RCHA            
                 CHD =         141.1190                   CHD =           0.0000     CHD             

            TOTAL IN =      109627.1433              TOTAL IN =         158.3215

          OUT:                                     OUT:
          ----                                     ----
              STO-SS =          19.9038                STO-SS =       1.4327E-02     STORAGE         
              STO-SY =       12947.9448                STO-SY =           8.9710     STORAGE         
                 RCH =           0.0000                   RCH =           0.0000     RCHA            
                 CHD =       96659.6747                   CHD =         149.3369     CHD             

           TOTAL OUT =      109627.5233             TOTAL OUT =         158.3223

            IN - OUT =          -0.3800              IN - OUT =      -7.7554E-04

 PERCENT DISCREPANCY =          -0.00     PERCENT DISCREPANCY =          -0.00




         TIME SUMMARY AT END OF TIME STEP    2 IN STRESS PERIOD   21
                    SECONDS     MINUTES      HOURS       DAYS        YEARS
                    -----------------------------------------------------------
   TIME STEP LENGTH 2.59200E+05  4320.0      72.000      3.0000     8.21355E-03
 STRESS PERIOD TIME 5.18400E+05  8640.0      144.00      6.0000     1.64271E-02
         TOTAL TIME 4.98528E+07 8.30880E+05  13848.      577.00      1.5797    
 UBDSV1 SAVING           STO-SS ON UNIT   1016 AT TIME STEP      3, STRESS PERIOD     21
 UBDSV1 SAVING           STO-SY ON UNIT   1016 AT TIME STEP      3, STRESS PERIOD     21
 UBDSV1 SAVING     FLOW-JA-FACE ON UNIT   1016 AT TIME STEP      3, STRESS PERIOD     21
 UBDSV06 SAVING              RCH IN MODEL TEST_TRANS       PACKAGE TEST_TRANS      CONNECTED TO MODEL TEST_TRANS       PACKAGE RCHA             ON UNIT   1016 AT TIME STEP      3, STRESS PERIOD     21
 UBDSV06 SAVING              CHD IN MODEL TEST_TRANS       PACKAGE TEST_TRANS      CONNECTED TO MODEL TEST_TRANS       PACKAGE CHD              ON UNIT   1016 AT TIME STEP      3, STRESS PERIOD     21

 HEAD WILL BE SAVED ON UNIT 1017 AT END OF TIME STEP    3, STRESS PERIOD   21


  VOLUME BUDGET FOR ENTIRE MODEL AT END OF TIME STEP    3, STRESS PERIOD  21
  ---------------------------------------------------------------------------------------------------

     CUMULATIVE VOLUME      L**3       RATES FOR THIS TIME STEP      L**3/T          PACKAGE NAME    
     ------------------                 ------------------------                     ----------------

           IN:                                      IN:
           ---                                      ---
              STO-SS =          31.1313                STO-SS =       1.6356E-02     STORAGE         
              STO-SY =       19723.3778                STO-SY =          11.1349     STORAGE         
                 RCH =       90194.0111                   RCH =         143.0141     RCHA            
                 CHD =         141.1190                   CHD =           0.0000     CHD             

            TOTAL IN =      110089.6392              TOTAL IN =         154.1653

          OUT:                                     OUT:
          ----                                     ----
              STO-SS =          19.9441                STO-SS =       1.3431E-02     STORAGE         
              STO-SY =       12973.1619                STO-SY =           8.4057     STORAGE         
                 RCH =           0.0000                   RCH =           0.0000     RCHA            
                 CHD =       97096.9067                   CHD =         145.7440     CHD             

           TOTAL OUT =      110090.0127             TOTAL OUT =         154.1632

            IN - OUT =          -0.3736              IN - OUT =       2.1407E-03

 PERCENT DISCREPANCY =          -0.00     PERCENT DISCREPANCY =           0.00




         TIME SUMMARY AT END OF TIME STEP    3 IN STRESS PERIOD   21
                    SECONDS     MINUTES      HOURS       DAYS        YEARS
                    -----------------------------------------------------------
   TIME STEP LENGTH 2.59200E+05  4320.0      72.000      3.0000     8.21355E-03
 STRESS PERIOD TIME 7.77600E+05  12960.      216.00      9.0000     2.46407E-02
         TOTAL TIME 5.01120E+07 8.35200E+05  13920.      580.00      1.5880    
 UBDSV1 SAVING           STO-SS ON UNIT   1016 AT TIME STEP      4, STRESS PERIOD     21
 UBDSV1 SAVING           STO-SY ON UNIT   1016 AT TIME STEP      4, STRESS PERIOD     21
 UBDSV1 SAVING     FLOW-JA-FACE ON UNIT   1016 AT TIME STEP      4, STRESS PERIOD     21
 UBDSV06 SAVING              RCH IN MODEL TEST_TRANS       PACKAGE TEST_TRANS      CONNECTED TO MODEL TEST_TRANS       PACKAGE RCHA             ON UNIT   1016 AT TIME STEP      4, STRESS PERIOD     21
 UBDSV06 SAVING              CHD IN MODEL TEST_TRANS       PACKAGE TEST_TRANS      CONNECTED TO MODEL TEST_TRANS       PACKAGE CHD              ON UNIT   1016 AT TIME STEP      4, STRESS PERIOD     21

 HEAD WILL BE SAVED ON UNIT 1017 AT END OF TIME STEP    4, STRESS PERIOD   21


  VOLUME BUDGET FOR ENTIRE MODEL AT END OF TIME STEP    4, STRESS PERIOD  21
  ---------------------------------------------------------------------------------------------------

     CUMULATIVE VOLUME      L**3       RATES FOR THIS TIME STEP      L**3/T          PACKAGE NAME    
     ------------------                 ------------------------                     ----------------

           IN:                                      IN:
           ---                                      ---
              STO-SS =          31.1696                STO-SS =       1.2777E-02     STORAGE         
              STO-SY =       19749.3471                STO-SY =           8.6564     STORAGE         
                 RCH =       90623.0533                   RCH =         143.0141     RCHA            
                 CHD =         141.1190                   CHD =           0.0000     CHD             

            TOTAL IN =      110544.6890              TOTAL IN =         151.6833

          OUT:                                     OUT:
          ----                                     ----
              STO-SS =          19.9819                STO-SS =       1.2597E-02     STORAGE         
              STO-SY =       12996.8027                STO-SY =           7.8802     STORAGE         
                 RCH =           0.0000                   RCH =           0.0000     RCHA            
                 CHD =       97528.2726                   CHD =         143.7886     CHD             

           TOTAL OUT =      110545.0572             TOTAL OUT =         151.6815

            IN - OUT =          -0.3682              IN - OUT =       1.7881E-03

 PERCENT DISCREPANCY =          -0.00     PERCENT DISCREPANCY =           0.00




         TIME SUMMARY AT END OF TIME STEP    4 IN STRESS PERIOD   21
                    SECONDS     MINUTES      HOURS       DAYS        YEARS
                    -----------------------------------------------------------
   TIME STEP LENGTH 2.59200E+05  4320.0      72.000      3.0000     8.21355E-03
 STRESS PERIOD TIME 1.03680E+06  17280.      288.00      12.000     3.28542E-02
         TOTAL TIME 5.03712E+07 8.39520E+05  13992.      583.00      1.5962    
 UBDSV1 SAVING           STO-SS ON UNIT   1016 AT TIME STEP      5, STRESS PERIOD     21
 UBDSV1 SAVING           STO-SY ON UNIT   1016 AT TIME STEP      5, STRESS PERIOD     21
 UBDSV1 SAVING     FLOW-JA-FACE ON UNIT   1016 AT TIME STEP      5, STRESS PERIOD     21
 UBDSV06 SAVING              RCH IN MODEL TEST_TRANS       PACKAGE TEST_TRANS      CONNECTED TO MODEL TEST_TRANS       PACKAGE RCHA             ON UNIT   1016 AT TIME STEP      5, STRESS PERIOD     21
 UBDSV06 SAVING              CHD IN MODEL TEST_TRANS       PACKAGE TEST_TRANS      CONNECTED TO MODEL TEST_TRANS       PACKAGE CHD              ON UNIT   1016 AT TIME STEP      5, STRESS PERIOD     21

 HEAD WILL BE SAVED ON UNIT 1017 AT END OF TIME STEP    5, STRESS PERIOD   21


  VOLUME BUDGET FOR ENTIRE MODEL AT END OF TIME STEP    5, STRESS PERIOD  21
  ---------------------------------------------------------------------------------------------------

     CUMULATIVE VOLUME      L**3       RATES FOR THIS TIME STEP      L**3/T          PACKAGE NAME    
     ------------------                 ------------------------                     ----------------

           IN:                                      IN:
           ---                                      ---
              STO-SS =          31.2003                STO-SS =       1.0230E-02     STORAGE         
              STO-SY =       19770.0757                STO-SY =           6.9096     STORAGE         
                 RCH =       91052.0955                   RCH =         143.0141     RCHA            
                 CHD =         141.1190                   CHD =           0.0000     CHD             

            TOTAL IN =      110994.4906              TOTAL IN =         149.9339

          OUT:                                     OUT:
          ----                                     ----
              STO-SS =          20.0174                STO-SS =       1.1810E-02     STORAGE         
              STO-SY =       13018.9582                STO-SY =           7.3852     STORAGE         
                 RCH =           0.0000                   RCH =           0.0000     RCHA            
                 CHD =       97955.8762                   CHD =         142.5345     CHD             

           TOTAL OUT =      110994.8518             TOTAL OUT =         149.9315

            IN - OUT =          -0.3612              IN - OUT =       2.3376E-03

 PERCENT DISCREPANCY =          -0.00     PERCENT DISCREPANCY =           0.00




         TIME SUMMARY AT END OF TIME STEP    5 IN STRESS PERIOD   21
                    SECONDS     MINUTES      HOURS       DAYS        YEARS
                    -----------------------------------------------------------
   TIME STEP LENGTH 2.59200E+05  4320.0      72.000      3.0000     8.21355E-03
 STRESS PERIOD TIME 1.29600E+06  21600.      360.00      15.000     4.10678E-02
         TOTAL TIME 5.06304E+07 8.43840E+05  14064.      586.00      1.6044    
 UBDSV1 SAVING           STO-SS ON UNIT   1016 AT TIME STEP      6, STRESS PERIOD     21
 UBDSV1 SAVING           STO-SY ON UNIT   1016 AT TIME STEP      6, STRESS PERIOD     21
 UBDSV1 SAVING     FLOW-JA-FACE ON UNIT   1016 AT TIME STEP      6, STRESS PERIOD     21
 UBDSV06 SAVING              RCH IN MODEL TEST_TRANS       PACKAGE TEST_TRANS      CONNECTED TO MODEL TEST_TRANS       PACKAGE RCHA             ON UNIT   1016 AT TIME STEP      6, STRESS PERIOD     21
 UBDSV06 SAVING              CHD IN MODEL TEST_TRANS       PACKAGE TEST_TRANS      CONNECTED TO MODEL TEST_TRANS       PACKAGE CHD              ON UNIT   1016 AT TIME STEP      6, STRESS PERIOD     21

 HEAD WILL BE SAVED ON UNIT 1017 AT END OF TIME STEP    6, STRESS PERIOD   21


  VOLUME BUDGET FOR ENTIRE MODEL AT END OF TIME STEP    6, STRESS PERIOD  21
  ---------------------------------------------------------------------------------------------------

     CUMULATIVE VOLUME      L**3       RATES FOR THIS TIME STEP      L**3/T          PACKAGE NAME    
     ------------------                 ------------------------                     ----------------

           IN:                                      IN:
           ---                                      ---
              STO-SS =          31.2252                STO-SS =       8.3002E-03     STORAGE         
              STO-SY =       19786.8602                STO-SY =           5.5948     STORAGE         
                 RCH =       91481.1378                   RCH =         143.0141     RCHA            
                 CHD =         141.1190                   CHD =           0.0000     CHD             

            TOTAL IN =      111440.3422              TOTAL IN =         148.6172

          OUT:                                     OUT:
          ----                                     ----
              STO-SS =          20.0506                STO-SS =       1.1084E-02     STORAGE         
              STO-SY =       13039.7443                STO-SY =           6.9287     STORAGE         
                 RCH =           0.0000                   RCH =           0.0000     RCHA            
                 CHD =       98380.8244                   CHD =         141.6494     CHD             

           TOTAL OUT =      111440.6192             TOTAL OUT =         148.5892

            IN - OUT =          -0.2771              IN - OUT =       2.8042E-02

 PERCENT DISCREPANCY =          -0.00     PERCENT DISCREPANCY =           0.02




         TIME SUMMARY AT END OF TIME STEP    6 IN STRESS PERIOD   21
                    SECONDS     MINUTES      HOURS       DAYS        YEARS
                    -----------------------------------------------------------
   TIME STEP LENGTH 2.59200E+05  4320.0      72.000      3.0000     8.21355E-03
 STRESS PERIOD TIME 1.55520E+06  25920.      432.00      18.000     4.92813E-02
         TOTAL TIME 5.08896E+07 8.48160E+05  14136.      589.00      1.6126    
 UBDSV1 SAVING           STO-SS ON UNIT   1016 AT TIME STEP      7, STRESS PERIOD     21
 UBDSV1 SAVING           STO-SY ON UNIT   1016 AT TIME STEP      7, STRESS PERIOD     21
 UBDSV1 SAVING     FLOW-JA-FACE ON UNIT   1016 AT TIME STEP      7, STRESS PERIOD     21
 UBDSV06 SAVING              RCH IN MODEL TEST_TRANS       PACKAGE TEST_TRANS      CONNECTED TO MODEL TEST_TRANS       PACKAGE RCHA             ON UNIT   1016 AT TIME STEP      7, STRESS PERIOD     21
 UBDSV06 SAVING              CHD IN MODEL TEST_TRANS       PACKAGE TEST_TRANS      CONNECTED TO MODEL TEST_TRANS       PACKAGE CHD              ON UNIT   1016 AT TIME STEP      7, STRESS PERIOD     21

 HEAD WILL BE SAVED ON UNIT 1017 AT END OF TIME STEP    7, STRESS PERIOD   21


  VOLUME BUDGET FOR ENTIRE MODEL AT END OF TIME STEP    7, STRESS PERIOD  21
  ---------------------------------------------------------------------------------------------------

     CUMULATIVE VOLUME      L**3       RATES FOR THIS TIME STEP      L**3/T          PACKAGE NAME    
     ------------------                 ------------------------                     ----------------

           IN:                                      IN:
           ---                                      ---
              STO-SS =          31.2454                STO-SS =       6.7247E-03     STORAGE         
              STO-SY =       19800.4417                STO-SY =           4.5272     STORAGE         
                 RCH =       91910.1800                   RCH =         143.0141     RCHA            
                 CHD =         141.1190                   CHD =           0.0000     CHD             

            TOTAL IN =      111882.9861              TOTAL IN =         147.5480

          OUT:                                     OUT:
          ----                                     ----
              STO-SS =          20.0819                STO-SS =       1.0435E-02     STORAGE         
              STO-SY =       13059.3086                STO-SY =           6.5214     STORAGE         
                 RCH =           0.0000                   RCH =           0.0000     RCHA            
                 CHD =       98803.8095                   CHD =         140.9951     CHD             

           TOTAL OUT =      111883.2000             TOTAL OUT =         147.5269

            IN - OUT =          -0.2139              IN - OUT =       2.1065E-02

 PERCENT DISCREPANCY =          -0.00     PERCENT DISCREPANCY =           0.01




         TIME SUMMARY AT END OF TIME STEP    7 IN STRESS PERIOD   21
                    SECONDS     MINUTES      HOURS       DAYS        YEARS
                    -----------------------------------------------------------
   TIME STEP LENGTH 2.59200E+05  4320.0      72.000      3.0000     8.21355E-03
 STRESS PERIOD TIME 1.81440E+06  30240.      504.00      21.000     5.74949E-02
         TOTAL TIME 5.11488E+07 8.52480E+05  14208.      592.00      1.6208    
 UBDSV1 SAVING           STO-SS ON UNIT   1016 AT TIME STEP      8, STRESS PERIOD     21
 UBDSV1 SAVING           STO-SY ON UNIT   1016 AT TIME STEP      8, STRESS PERIOD     21
 UBDSV1 SAVING     FLOW-JA-FACE ON UNIT   1016 AT TIME STEP      8, STRESS PERIOD     21
 UBDSV06 SAVING              RCH IN MODEL TEST_TRANS       PACKAGE TEST_TRANS      CONNECTED TO MODEL TEST_TRANS       PACKAGE RCHA             ON UNIT   1016 AT TIME STEP      8, STRESS PERIOD     21
 UBDSV06 SAVING              CHD IN MODEL TEST_TRANS       PACKAGE TEST_TRANS      CONNECTED TO MODEL TEST_TRANS       PACKAGE CHD              ON UNIT   1016 AT TIME STEP      8, STRESS PERIOD     21

 HEAD WILL BE SAVED ON UNIT 1017 AT END OF TIME STEP    8, STRESS PERIOD   21


  VOLUME BUDGET FOR ENTIRE MODEL AT END OF TIME STEP    8, STRESS PERIOD  21
  ---------------------------------------------------------------------------------------------------

     CUMULATIVE VOLUME      L**3       RATES FOR THIS TIME STEP      L**3/T          PACKAGE NAME    
     ------------------                 ------------------------                     ----------------

           IN:                                      IN:
           ---                                      ---
              STO-SS =          31.2617                STO-SS =       5.4409E-03     STORAGE         
              STO-SY =       19811.4230                STO-SY =           3.6604     STORAGE         
                 RCH =       92339.2223                   RCH =         143.0141     RCHA            
                 CHD =         141.1190                   CHD =           0.0000     CHD             

            TOTAL IN =      112323.0260              TOTAL IN =         146.6799

          OUT:                                     OUT:
          ----                                     ----
              STO-SS =          20.1115                STO-SS =       9.8568E-03     STORAGE         
              STO-SY =       13077.7855                STO-SY =           6.1590     STORAGE         
                 RCH =           0.0000                   RCH =           0.0000     RCHA            
                 CHD =       99225.2944                   CHD =         140.4950     CHD             

           TOTAL OUT =      112323.1914             TOTAL OUT =         146.6638

            IN - OUT =          -0.1654              IN - OUT =       1.6155E-02

 PERCENT DISCREPANCY =          -0.00     PERCENT DISCREPANCY =           0.01




         TIME SUMMARY AT END OF TIME STEP    8 IN STRESS PERIOD   21
                    SECONDS     MINUTES      HOURS       DAYS        YEARS
                    -----------------------------------------------------------
   TIME STEP LENGTH 2.59200E+05  4320.0      72.000      3.0000     8.21355E-03
 STRESS PERIOD TIME 2.07360E+06  34560.      576.00      24.000     6.57084E-02
         TOTAL TIME 5.14080E+07 8.56800E+05  14280.      595.00      1.6290    
 UBDSV1 SAVING           STO-SS ON UNIT   1016 AT TIME STEP      9, STRESS PERIOD     21
 UBDSV1 SAVING           STO-SY ON UNIT   1016 AT TIME STEP      9, STRESS PERIOD     21
 UBDSV1 SAVING     FLOW-JA-FACE ON UNIT   1016 AT TIME STEP      9, STRESS PERIOD     21
 UBDSV06 SAVING              RCH IN MODEL TEST_TRANS       PACKAGE TEST_TRANS      CONNECTED TO MODEL TEST_TRANS       PACKAGE RCHA             ON UNIT   1016 AT TIME STEP      9, STRESS PERIOD     21
 UBDSV06 SAVING              CHD IN MODEL TEST_TRANS       PACKAGE TEST_TRANS      CONNECTED TO MODEL TEST_TRANS       PACKAGE CHD              ON UNIT   1016 AT TIME STEP      9, STRESS PERIOD     21

 HEAD WILL BE SAVED ON UNIT 1017 AT END OF TIME STEP    9, STRESS PERIOD   21


  VOLUME BUDGET FOR ENTIRE MODEL AT END OF TIME STEP    9, STRESS PERIOD  21
  ---------------------------------------------------------------------------------------------------

     CUMULATIVE VOLUME      L**3       RATES FOR THIS TIME STEP      L**3/T          PACKAGE NAME    
     ------------------                 ------------------------                     ----------------

           IN:                                      IN:
           ---                                      ---
              STO-SS =          31.2749                STO-SS =       4.3791E-03     STORAGE         
              STO-SY =       19820.2594                STO-SY =           2.9455     STORAGE         
                 RCH =       92768.2645                   RCH =         143.0141     RCHA            
                 CHD =         141.1190                   CHD =           0.0000     CHD             

            TOTAL IN =      112760.9178              TOTAL IN =         145.9639

          OUT:                                     OUT:
          ----                                     ----
              STO-SS =          20.1395                STO-SS =       9.3434E-03     STORAGE         
              STO-SY =       13095.2983                STO-SY =           5.8376     STORAGE         
                 RCH =           0.0000                   RCH =           0.0000     RCHA            
                 CHD =       99645.6078                   CHD =         140.1045     CHD             

           TOTAL OUT =      112761.0456             TOTAL OUT =         145.9514

            IN - OUT =          -0.1278              IN - OUT =       1.2535E-02

 PERCENT DISCREPANCY =          -0.00     PERCENT DISCREPANCY =           0.01




         TIME SUMMARY AT END OF TIME STEP    9 IN STRESS PERIOD   21
                    SECONDS     MINUTES      HOURS       DAYS        YEARS
                    -----------------------------------------------------------
   TIME STEP LENGTH 2.59200E+05  4320.0      72.000      3.0000     8.21355E-03
 STRESS PERIOD TIME 2.33280E+06  38880.      648.00      27.000     7.39220E-02
         TOTAL TIME 5.16672E+07 8.61120E+05  14352.      598.00      1.6372    
 UBDSV1 SAVING           STO-SS ON UNIT   1016 AT TIME STEP     10, STRESS PERIOD     21
 UBDSV1 SAVING           STO-SY ON UNIT   1016 AT TIME STEP     10, STRESS PERIOD     21
 UBDSV1 SAVING     FLOW-JA-FACE ON UNIT   1016 AT TIME STEP     10, STRESS PERIOD     21
 UBDSV06 SAVING              RCH IN MODEL TEST_TRANS       PACKAGE TEST_TRANS      CONNECTED TO MODEL TEST_TRANS       PACKAGE RCHA             ON UNIT   1016 AT TIME STEP     10, STRESS PERIOD     21
 UBDSV06 SAVING              CHD IN MODEL TEST_TRANS       PACKAGE TEST_TRANS      CONNECTED TO MODEL TEST_TRANS       PACKAGE CHD              ON UNIT   1016 AT TIME STEP     10, STRESS PERIOD     21

 HEAD WILL BE SAVED ON UNIT 1017 AT END OF TIME STEP   10, STRESS PERIOD   21


  VOLUME BUDGET FOR ENTIRE MODEL AT END OF TIME STEP   10, STRESS PERIOD  21
  ---------------------------------------------------------------------------------------------------

     CUMULATIVE VOLUME      L**3       RATES FOR THIS TIME STEP      L**3/T          PACKAGE NAME    
     ------------------                 ------------------------                     ----------------

           IN:                                      IN:
           ---                                      ---
              STO-SS =          31.2853                STO-SS =       3.4919E-03     STORAGE         
              STO-SY =       19827.3074                STO-SY =           2.3493     STORAGE         
                 RCH =       93197.3067                   RCH =         143.0141     RCHA            
                 CHD =         141.1190                   CHD =           0.0000     CHD             

            TOTAL IN =      113197.0184              TOTAL IN =         145.3669

          OUT:                                     OUT:
          ----                                     ----
              STO-SS =          20.1662                STO-SS =       8.8877E-03     STORAGE         
              STO-SY =       13111.9560                STO-SY =           5.5526     STORAGE         
                 RCH =           0.0000                   RCH =           0.0000     RCHA            
                 CHD =      100064.9947                   CHD =         139.7957     CHD             

           TOTAL OUT =      113197.1170             TOTAL OUT =         145.3571

            IN - OUT =      -9.8505E-02              IN - OUT =       9.7674E-03

 PERCENT DISCREPANCY =          -0.00     PERCENT DISCREPANCY =           0.01




         TIME SUMMARY AT END OF TIME STEP   10 IN STRESS PERIOD   21
                    SECONDS     MINUTES      HOURS       DAYS        YEARS
                    -----------------------------------------------------------
   TIME STEP LENGTH 2.59200E+05  4320.0      72.000      3.0000     8.21355E-03
 STRESS PERIOD TIME 2.59200E+06  43200.      720.00      30.000     8.21355E-02
         TOTAL TIME 5.19264E+07 8.65440E+05  14424.      601.00      1.6454    

 OUTPUT CONTROL FOR STRESS PERIOD 22 IS REPEATED USING SETTINGS FROM A PREVIOUS STRESS PERIOD.


 STRESS PERIOD 22 IS TRANSIENT


                 RECHARGE =  0.2191780E-02
 UBDSV1 SAVING           STO-SS ON UNIT   1016 AT TIME STEP      1, STRESS PERIOD     22
 UBDSV1 SAVING           STO-SY ON UNIT   1016 AT TIME STEP      1, STRESS PERIOD     22
 UBDSV1 SAVING     FLOW-JA-FACE ON UNIT   1016 AT TIME STEP      1, STRESS PERIOD     22
 UBDSV06 SAVING              RCH IN MODEL TEST_TRANS       PACKAGE TEST_TRANS      CONNECTED TO MODEL TEST_TRANS       PACKAGE RCHA             ON UNIT   1016 AT TIME STEP      1, STRESS PERIOD     22
 UBDSV06 SAVING              CHD IN MODEL TEST_TRANS       PACKAGE TEST_TRANS      CONNECTED TO MODEL TEST_TRANS       PACKAGE CHD              ON UNIT   1016 AT TIME STEP      1, STRESS PERIOD     22

 HEAD WILL BE SAVED ON UNIT 1017 AT END OF TIME STEP    1, STRESS PERIOD   22


  VOLUME BUDGET FOR ENTIRE MODEL AT END OF TIME STEP    1, STRESS PERIOD  22
  ---------------------------------------------------------------------------------------------------

     CUMULATIVE VOLUME      L**3       RATES FOR THIS TIME STEP      L**3/T          PACKAGE NAME    
     ------------------                 ------------------------                     ----------------

           IN:                                      IN:
           ---                                      ---
              STO-SS =          31.3975                STO-SS =       3.7377E-02     STORAGE         
              STO-SY =       19906.3640                STO-SY =          26.3522     STORAGE         
                 RCH =       93769.3613                   RCH =         190.6849     RCHA            
                 CHD =         141.1190                   CHD =           0.0000     CHD             

            TOTAL IN =      113848.2418              TOTAL IN =         217.0744

          OUT:                                     OUT:
          ----                                     ----
              STO-SS =          20.3594                STO-SS =       6.4396E-02     STORAGE         
              STO-SY =       13234.1541                STO-SY =          40.7327     STORAGE         
                 RCH =           0.0000                   RCH =           0.0000     RCHA            
                 CHD =      100593.8833                   CHD =         176.2962     CHD             

           TOTAL OUT =      113848.3967             TOTAL OUT =         217.0933

            IN - OUT =          -0.1550              IN - OUT =      -1.8825E-02

 PERCENT DISCREPANCY =          -0.00     PERCENT DISCREPANCY =          -0.01




         TIME SUMMARY AT END OF TIME STEP    1 IN STRESS PERIOD   22
                    SECONDS     MINUTES      HOURS       DAYS        YEARS
                    -----------------------------------------------------------
   TIME STEP LENGTH 2.59200E+05  4320.0      72.000      3.0000     8.21355E-03
 STRESS PERIOD TIME 2.59200E+05  4320.0      72.000      3.0000     8.21355E-03
         TOTAL TIME 5.21856E+07 8.69760E+05  14496.      604.00      1.6537    
 UBDSV1 SAVING           STO-SS ON UNIT   1016 AT TIME STEP      2, STRESS PERIOD     22
 UBDSV1 SAVING           STO-SY ON UNIT   1016 AT TIME STEP      2, STRESS PERIOD     22
 UBDSV1 SAVING     FLOW-JA-FACE ON UNIT   1016 AT TIME STEP      2, STRESS PERIOD     22
 UBDSV06 SAVING              RCH IN MODEL TEST_TRANS       PACKAGE TEST_TRANS      CONNECTED TO MODEL TEST_TRANS       PACKAGE RCHA             ON UNIT   1016 AT TIME STEP      2, STRESS PERIOD     22
 UBDSV06 SAVING              CHD IN MODEL TEST_TRANS       PACKAGE TEST_TRANS      CONNECTED TO MODEL TEST_TRANS       PACKAGE CHD              ON UNIT   1016 AT TIME STEP      2, STRESS PERIOD     22

 HEAD WILL BE SAVED ON UNIT 1017 AT END OF TIME STEP    2, STRESS PERIOD   22


  VOLUME BUDGET FOR ENTIRE MODEL AT END OF TIME STEP    2, STRESS PERIOD  22
  ---------------------------------------------------------------------------------------------------

     CUMULATIVE VOLUME      L**3       RATES FOR THIS TIME STEP      L**3/T          PACKAGE NAME    
     ------------------                 ------------------------                     ----------------

           IN:                                      IN:
           ---                                      ---
              STO-SS =          31.4503                STO-SS =       1.7628E-02     STORAGE         
              STO-SY =       19943.3814                STO-SY =          12.3391     STORAGE         
                 RCH =       94341.4159                   RCH =         190.6849     RCHA            
                 CHD =         141.1190                   CHD =           0.0000     CHD             

            TOTAL IN =      114457.3666              TOTAL IN =         203.0416

          OUT:                                     OUT:
          ----                                     ----
              STO-SS =          20.5409                STO-SS =       6.0509E-02     STORAGE         
              STO-SY =       13348.6656                STO-SY =          38.1705     STORAGE         
                 RCH =           0.0000                   RCH =           0.0000     RCHA            
                 CHD =      101088.3256                   CHD =         164.8141     CHD             

           TOTAL OUT =      114457.5322             TOTAL OUT =         203.0451

            IN - OUT =          -0.1656              IN - OUT =      -3.5295E-03

 PERCENT DISCREPANCY =          -0.00     PERCENT DISCREPANCY =          -0.00




         TIME SUMMARY AT END OF TIME STEP    2 IN STRESS PERIOD   22
                    SECONDS     MINUTES      HOURS       DAYS        YEARS
                    -----------------------------------------------------------
   TIME STEP LENGTH 2.59200E+05  4320.0      72.000      3.0000     8.21355E-03
 STRESS PERIOD TIME 5.18400E+05  8640.0      144.00      6.0000     1.64271E-02
         TOTAL TIME 5.24448E+07 8.74080E+05  14568.      607.00      1.6619    
 UBDSV1 SAVING           STO-SS ON UNIT   1016 AT TIME STEP      3, STRESS PERIOD     22
 UBDSV1 SAVING           STO-SY ON UNIT   1016 AT TIME STEP      3, STRESS PERIOD     22
 UBDSV1 SAVING     FLOW-JA-FACE ON UNIT   1016 AT TIME STEP      3, STRESS PERIOD     22
 UBDSV06 SAVING              RCH IN MODEL TEST_TRANS       PACKAGE TEST_TRANS      CONNECTED TO MODEL TEST_TRANS       PACKAGE RCHA             ON UNIT   1016 AT TIME STEP      3, STRESS PERIOD     22
 UBDSV06 SAVING              CHD IN MODEL TEST_TRANS       PACKAGE TEST_TRANS      CONNECTED TO MODEL TEST_TRANS       PACKAGE CHD              ON UNIT   1016 AT TIME STEP      3, STRESS PERIOD     22

 HEAD WILL BE SAVED ON UNIT 1017 AT END OF TIME STEP    3, STRESS PERIOD   22


  VOLUME BUDGET FOR ENTIRE MODEL AT END OF TIME STEP    3, STRESS PERIOD  22
  ---------------------------------------------------------------------------------------------------

     CUMULATIVE VOLUME      L**3       RATES FOR THIS TIME STEP      L**3/T          PACKAGE NAME    
     ------------------                 ------------------------                     ----------------

           IN:                                      IN:
           ---                                      ---
              STO-SS =          31.4784                STO-SS =       9.3627E-03     STORAGE         
              STO-SY =       19962.9499                STO-SY =           6.5229     STORAGE         
                 RCH =       94913.4705                   RCH =         190.6849     RCHA            
                 CHD =         141.1190                   CHD =           0.0000     CHD             

            TOTAL IN =      115049.0178              TOTAL IN =         197.2171

          OUT:                                     OUT:
          ----                                     ----
              STO-SS =          20.7144                STO-SS =       5.7834E-02     STORAGE         
              STO-SY =       13457.9404                STO-SY =          36.4249     STORAGE         
                 RCH =           0.0000                   RCH =           0.0000     RCHA            
                 CHD =      101570.5296                   CHD =         160.7346     CHD             

           TOTAL OUT =      115049.1844             TOTAL OUT =         197.2174

            IN - OUT =          -0.1665              IN - OUT =      -3.2503E-04

 PERCENT DISCREPANCY =          -0.00     PERCENT DISCREPANCY =          -0.00




         TIME SUMMARY AT END OF TIME STEP    3 IN STRESS PERIOD   22
                    SECONDS     MINUTES      HOURS       DAYS        YEARS
                    -----------------------------------------------------------
   TIME STEP LENGTH 2.59200E+05  4320.0      72.000      3.0000     8.21355E-03
 STRESS PERIOD TIME 7.77600E+05  12960.      216.00      9.0000     2.46407E-02
         TOTAL TIME 5.27040E+07 8.78400E+05  14640.      610.00      1.6701    
 UBDSV1 SAVING           STO-SS ON UNIT   1016 AT TIME STEP      4, STRESS PERIOD     22
 UBDSV1 SAVING           STO-SY ON UNIT   1016 AT TIME STEP      4, STRESS PERIOD     22
 UBDSV1 SAVING     FLOW-JA-FACE ON UNIT   1016 AT TIME STEP      4, STRESS PERIOD     22
 UBDSV06 SAVING              RCH IN MODEL TEST_TRANS       PACKAGE TEST_TRANS      CONNECTED TO MODEL TEST_TRANS       PACKAGE RCHA             ON UNIT   1016 AT TIME STEP      4, STRESS PERIOD     22
 UBDSV06 SAVING              CHD IN MODEL TEST_TRANS       PACKAGE TEST_TRANS      CONNECTED TO MODEL TEST_TRANS       PACKAGE CHD              ON UNIT   1016 AT TIME STEP      4, STRESS PERIOD     22

 HEAD WILL BE SAVED ON UNIT 1017 AT END OF TIME STEP    4, STRESS PERIOD   22


  VOLUME BUDGET FOR ENTIRE MODEL AT END OF TIME STEP    4, STRESS PERIOD  22
  ---------------------------------------------------------------------------------------------------

     CUMULATIVE VOLUME      L**3       RATES FOR THIS TIME STEP      L**3/T          PACKAGE NAME    
     ------------------                 ------------------------                     ----------------

           IN:                                      IN:
           ---                                      ---
              STO-SS =          31.4933                STO-SS =       4.9458E-03     STORAGE         
              STO-SY =       19973.2708                STO-SY =           3.4403     STORAGE         
                 RCH =       95485.5251                   RCH =         190.6849     RCHA            
                 CHD =         141.1190                   CHD =           0.0000     CHD             

            TOTAL IN =      115631.4081              TOTAL IN =         194.1301

          OUT:                                     OUT:
          ----                                     ----
              STO-SS =          20.8819                STO-SS =       5.5850E-02     STORAGE         
              STO-SY =       13563.3591                STO-SY =          35.1396     STORAGE         
                 RCH =           0.0000                   RCH =           0.0000     RCHA            
                 CHD =      102047.3353                   CHD =         158.9353     CHD             

           TOTAL OUT =      115631.5764             TOTAL OUT =         194.1307

            IN - OUT =          -0.1682              IN - OUT =      -5.6339E-04

 PERCENT DISCREPANCY =          -0.00     PERCENT DISCREPANCY =          -0.00




         TIME SUMMARY AT END OF TIME STEP    4 IN STRESS PERIOD   22
                    SECONDS     MINUTES      HOURS       DAYS        YEARS
                    -----------------------------------------------------------
   TIME STEP LENGTH 2.59200E+05  4320.0      72.000      3.0000     8.21355E-03
 STRESS PERIOD TIME 1.03680E+06  17280.      288.00      12.000     3.28542E-02
         TOTAL TIME 5.29632E+07 8.82720E+05  14712.      613.00      1.6783    
 UBDSV1 SAVING           STO-SS ON UNIT   1016 AT TIME STEP      5, STRESS PERIOD     22
 UBDSV1 SAVING           STO-SY ON UNIT   1016 AT TIME STEP      5, STRESS PERIOD     22
 UBDSV1 SAVING     FLOW-JA-FACE ON UNIT   1016 AT TIME STEP      5, STRESS PERIOD     22
 UBDSV06 SAVING              RCH IN MODEL TEST_TRANS       PACKAGE TEST_TRANS      CONNECTED TO MODEL TEST_TRANS       PACKAGE RCHA             ON UNIT   1016 AT TIME STEP      5, STRESS PERIOD     22
 UBDSV06 SAVING              CHD IN MODEL TEST_TRANS       PACKAGE TEST_TRANS      CONNECTED TO MODEL TEST_TRANS       PACKAGE CHD              ON UNIT   1016 AT TIME STEP      5, STRESS PERIOD     22

 HEAD WILL BE SAVED ON UNIT 1017 AT END OF TIME STEP    5, STRESS PERIOD   22


  VOLUME BUDGET FOR ENTIRE MODEL AT END OF TIME STEP    5, STRESS PERIOD  22
  ---------------------------------------------------------------------------------------------------

     CUMULATIVE VOLUME      L**3       RATES FOR THIS TIME STEP      L**3/T          PACKAGE NAME    
     ------------------                 ------------------------                     ----------------

           IN:                                      IN:
           ---                                      ---
              STO-SS =          31.5003                STO-SS =       2.3410E-03     STORAGE         
              STO-SY =       19978.1644                STO-SY =           1.6312     STORAGE         
                 RCH =       96057.5796                   RCH =         190.6849     RCHA            
                 CHD =         141.1190                   CHD =           0.0000     CHD             

            TOTAL IN =      116208.3633              TOTAL IN =         192.3184

          OUT:                                     OUT:
          ----                                     ----
              STO-SS =          21.0451                STO-SS =       5.4381E-02     STORAGE         
              STO-SY =       13665.9430                STO-SY =          34.1947     STORAGE         
                 RCH =           0.0000                   RCH =           0.0000     RCHA            
                 CHD =      102521.5460                   CHD =         158.0702     CHD             

           TOTAL OUT =      116208.5342             TOTAL OUT =         192.3193

            IN - OUT =          -0.1708              IN - OUT =      -8.5722E-04

 PERCENT DISCREPANCY =          -0.00     PERCENT DISCREPANCY =          -0.00




         TIME SUMMARY AT END OF TIME STEP    5 IN STRESS PERIOD   22
                    SECONDS     MINUTES      HOURS       DAYS        YEARS
                    -----------------------------------------------------------
   TIME STEP LENGTH 2.59200E+05  4320.0      72.000      3.0000     8.21355E-03
 STRESS PERIOD TIME 1.29600E+06  21600.      360.00      15.000     4.10678E-02
         TOTAL TIME 5.32224E+07 8.87040E+05  14784.      616.00      1.6865    
 UBDSV1 SAVING           STO-SS ON UNIT   1016 AT TIME STEP      6, STRESS PERIOD     22
 UBDSV1 SAVING           STO-SY ON UNIT   1016 AT TIME STEP      6, STRESS PERIOD     22
 UBDSV1 SAVING     FLOW-JA-FACE ON UNIT   1016 AT TIME STEP      6, STRESS PERIOD     22
 UBDSV06 SAVING              RCH IN MODEL TEST_TRANS       PACKAGE TEST_TRANS      CONNECTED TO MODEL TEST_TRANS       PACKAGE RCHA             ON UNIT   1016 AT TIME STEP      6, STRESS PERIOD     22
 UBDSV06 SAVING              CHD IN MODEL TEST_TRANS       PACKAGE TEST_TRANS      CONNECTED TO MODEL TEST_TRANS       PACKAGE CHD              ON UNIT   1016 AT TIME STEP      6, STRESS PERIOD     22

 HEAD WILL BE SAVED ON UNIT 1017 AT END OF TIME STEP    6, STRESS PERIOD   22


  VOLUME BUDGET FOR ENTIRE MODEL AT END OF TIME STEP    6, STRESS PERIOD  22
  ---------------------------------------------------------------------------------------------------

     CUMULATIVE VOLUME      L**3       RATES FOR THIS TIME STEP      L**3/T          PACKAGE NAME    
     ------------------                 ------------------------                     ----------------

           IN:                                      IN:
           ---                                      ---
              STO-SS =          31.5029                STO-SS =       8.7352E-04     STORAGE         
              STO-SY =       19979.9994                STO-SY =           0.6117     STORAGE         
                 RCH =       96629.6342                   RCH =         190.6849     RCHA            
                 CHD =         141.1190                   CHD =           0.0000     CHD             

            TOTAL IN =      116782.2556              TOTAL IN =         191.2974

          OUT:                                     OUT:
          ----                                     ----
              STO-SS =          21.2053                STO-SS =       5.3409E-02     STORAGE         
              STO-SY =       13766.6792                STO-SY =          33.5787     STORAGE         
                 RCH =           0.0000                   RCH =           0.0000     RCHA            
                 CHD =      102994.5437                   CHD =         157.6659     CHD             

           TOTAL OUT =      116782.4281             TOTAL OUT =         191.2980

            IN - OUT =          -0.1726              IN - OUT =      -5.8613E-04

 PERCENT DISCREPANCY =          -0.00     PERCENT DISCREPANCY =          -0.00




         TIME SUMMARY AT END OF TIME STEP    6 IN STRESS PERIOD   22
                    SECONDS     MINUTES      HOURS       DAYS        YEARS
                    -----------------------------------------------------------
   TIME STEP LENGTH 2.59200E+05  4320.0      72.000      3.0000     8.21355E-03
 STRESS PERIOD TIME 1.55520E+06  25920.      432.00      18.000     4.92813E-02
         TOTAL TIME 5.34816E+07 8.91360E+05  14856.      619.00      1.6947    
 UBDSV1 SAVING           STO-SS ON UNIT   1016 AT TIME STEP      7, STRESS PERIOD     22
 UBDSV1 SAVING           STO-SY ON UNIT   1016 AT TIME STEP      7, STRESS PERIOD     22
 UBDSV1 SAVING     FLOW-JA-FACE ON UNIT   1016 AT TIME STEP      7, STRESS PERIOD     22
 UBDSV06 SAVING              RCH IN MODEL TEST_TRANS       PACKAGE TEST_TRANS      CONNECTED TO MODEL TEST_TRANS       PACKAGE RCHA             ON UNIT   1016 AT TIME STEP      7, STRESS PERIOD     22
 UBDSV06 SAVING              CHD IN MODEL TEST_TRANS       PACKAGE TEST_TRANS      CONNECTED TO MODEL TEST_TRANS       PACKAGE CHD              ON UNIT   1016 AT TIME STEP      7, STRESS PERIOD     22

 HEAD WILL BE SAVED ON UNIT 1017 AT END OF TIME STEP    7, STRESS PERIOD   22


  VOLUME BUDGET FOR ENTIRE MODEL AT END OF TIME STEP    7, STRESS PERIOD  22
  ---------------------------------------------------------------------------------------------------

     CUMULATIVE VOLUME      L**3       RATES FOR THIS TIME STEP      L**3/T          PACKAGE NAME    
     ------------------                 ------------------------                     ----------------

           IN:                                      IN:
           ---                                      ---
              STO-SS =          31.5034                STO-SS =       1.6369E-04     STORAGE         
              STO-SY =       19980.3462                STO-SY =           0.1156     STORAGE         
                 RCH =       97201.6888                   RCH =         190.6849     RCHA            
                 CHD =         141.1190                   CHD =           0.0000     CHD             

            TOTAL IN =      117354.6574              TOTAL IN =         190.8006

          OUT:                                     OUT:
          ----                                     ----
              STO-SS =          21.3638                STO-SS =       5.2817E-02     STORAGE         
              STO-SY =       13866.3326                STO-SY =          33.2178     STORAGE         
                 RCH =           0.0000                   RCH =           0.0000     RCHA            
                 CHD =      103467.1518                   CHD =         157.5361     CHD             

           TOTAL OUT =      117354.8482             TOTAL OUT =         190.8067

            IN - OUT =          -0.1908              IN - OUT =      -6.0635E-03

 PERCENT DISCREPANCY =          -0.00     PERCENT DISCREPANCY =          -0.00




         TIME SUMMARY AT END OF TIME STEP    7 IN STRESS PERIOD   22
                    SECONDS     MINUTES      HOURS       DAYS        YEARS
                    -----------------------------------------------------------
   TIME STEP LENGTH 2.59200E+05  4320.0      72.000      3.0000     8.21355E-03
 STRESS PERIOD TIME 1.81440E+06  30240.      504.00      21.000     5.74949E-02
         TOTAL TIME 5.37408E+07 8.95680E+05  14928.      622.00      1.7029    
 UBDSV1 SAVING           STO-SS ON UNIT   1016 AT TIME STEP      8, STRESS PERIOD     22
 UBDSV1 SAVING           STO-SY ON UNIT   1016 AT TIME STEP      8, STRESS PERIOD     22
 UBDSV1 SAVING     FLOW-JA-FACE ON UNIT   1016 AT TIME STEP      8, STRESS PERIOD     22
 UBDSV06 SAVING              RCH IN MODEL TEST_TRANS       PACKAGE TEST_TRANS      CONNECTED TO MODEL TEST_TRANS       PACKAGE RCHA             ON UNIT   1016 AT TIME STEP      8, STRESS PERIOD     22
 UBDSV06 SAVING              CHD IN MODEL TEST_TRANS       PACKAGE TEST_TRANS      CONNECTED TO MODEL TEST_TRANS       PACKAGE CHD              ON UNIT   1016 AT TIME STEP      8, STRESS PERIOD     22

 HEAD WILL BE SAVED ON UNIT 1017 AT END OF TIME STEP    8, STRESS PERIOD   22


  VOLUME BUDGET FOR ENTIRE MODEL AT END OF TIME STEP    8, STRESS PERIOD  22
  ---------------------------------------------------------------------------------------------------

     CUMULATIVE VOLUME      L**3       RATES FOR THIS TIME STEP      L**3/T          PACKAGE NAME    
     ------------------                 ------------------------                     ----------------

           IN:                                      IN:
           ---                                      ---
              STO-SS =          31.5034                STO-SS =           0.0000     STORAGE         
              STO-SY =       19980.3462                STO-SY =           0.0000     STORAGE         
                 RCH =       97773.7434                   RCH =         190.6849     RCHA            
                 CHD =         141.1190                   CHD =           0.0000     CHD             

            TOTAL IN =      117926.7120              TOTAL IN =         190.6849

          OUT:                                     OUT:
          ----                                     ----
              STO-SS =          21.5214                STO-SS =       5.2536E-02     STORAGE         
              STO-SY =       13965.5392                STO-SY =          33.0689     STORAGE         
                 RCH =           0.0000                   RCH =           0.0000     RCHA            
                 CHD =      103939.8738                   CHD =         157.5740     CHD             

           TOTAL OUT =      117926.9345             TOTAL OUT =         190.6954

            IN - OUT =          -0.2224              IN - OUT =      -1.0560E-02

 PERCENT DISCREPANCY =          -0.00     PERCENT DISCREPANCY =          -0.01




         TIME SUMMARY AT END OF TIME STEP    8 IN STRESS PERIOD   22
                    SECONDS     MINUTES      HOURS       DAYS        YEARS
                    -----------------------------------------------------------
   TIME STEP LENGTH 2.59200E+05  4320.0      72.000      3.0000     8.21355E-03
 STRESS PERIOD TIME 2.07360E+06  34560.      576.00      24.000     6.57084E-02
         TOTAL TIME 5.40000E+07 9.00000E+05  15000.      625.00      1.7112    
 UBDSV1 SAVING           STO-SS ON UNIT   1016 AT TIME STEP      9, STRESS PERIOD     22
 UBDSV1 SAVING           STO-SY ON UNIT   1016 AT TIME STEP      9, STRESS PERIOD     22
 UBDSV1 SAVING     FLOW-JA-FACE ON UNIT   1016 AT TIME STEP      9, STRESS PERIOD     22
 UBDSV06 SAVING              RCH IN MODEL TEST_TRANS       PACKAGE TEST_TRANS      CONNECTED TO MODEL TEST_TRANS       PACKAGE RCHA             ON UNIT   1016 AT TIME STEP      9, STRESS PERIOD     22
 UBDSV06 SAVING              CHD IN MODEL TEST_TRANS       PACKAGE TEST_TRANS      CONNECTED TO MODEL TEST_TRANS       PACKAGE CHD              ON UNIT   1016 AT TIME STEP      9, STRESS PERIOD     22

 HEAD WILL BE SAVED ON UNIT 1017 AT END OF TIME STEP    9, STRESS PERIOD   22


  VOLUME BUDGET FOR ENTIRE MODEL AT END OF TIME STEP    9, STRESS PERIOD  22
  ---------------------------------------------------------------------------------------------------

     CUMULATIVE VOLUME      L**3       RATES FOR THIS TIME STEP      L**3/T          PACKAGE NAME    
     ------------------                 ------------------------                     ----------------

           IN:                                      IN:
           ---                                      ---
              STO-SS =          31.5034                STO-SS =           0.0000     STORAGE         
              STO-SY =       19980.3462                STO-SY =           0.0000     STORAGE         
                 RCH =       98345.7980                   RCH =         190.6849     RCHA            
                 CHD =         141.1190                   CHD =           0.0000     CHD             

            TOTAL IN =      118498.7666              TOTAL IN =         190.6849

          OUT:                                     OUT:
          ----                                     ----
              STO-SS =          21.6782                STO-SS =       5.2262E-02     STORAGE         
              STO-SY =       14064.3095                STO-SY =          32.9234     STORAGE         
                 RCH =           0.0000                   RCH =           0.0000     RCHA            
                 CHD =      104413.0402                   CHD =         157.7221     CHD             

           TOTAL OUT =      118499.0278             TOTAL OUT =         190.6978

            IN - OUT =          -0.2612              IN - OUT =      -1.2936E-02

 PERCENT DISCREPANCY =          -0.00     PERCENT DISCREPANCY =          -0.01




         TIME SUMMARY AT END OF TIME STEP    9 IN STRESS PERIOD   22
                    SECONDS     MINUTES      HOURS       DAYS        YEARS
                    -----------------------------------------------------------
   TIME STEP LENGTH 2.59200E+05  4320.0      72.000      3.0000     8.21355E-03
 STRESS PERIOD TIME 2.33280E+06  38880.      648.00      27.000     7.39220E-02
         TOTAL TIME 5.42592E+07 9.04320E+05  15072.      628.00      1.7194    
 UBDSV1 SAVING           STO-SS ON UNIT   1016 AT TIME STEP     10, STRESS PERIOD     22
 UBDSV1 SAVING           STO-SY ON UNIT   1016 AT TIME STEP     10, STRESS PERIOD     22
 UBDSV1 SAVING     FLOW-JA-FACE ON UNIT   1016 AT TIME STEP     10, STRESS PERIOD     22
 UBDSV06 SAVING              RCH IN MODEL TEST_TRANS       PACKAGE TEST_TRANS      CONNECTED TO MODEL TEST_TRANS       PACKAGE RCHA             ON UNIT   1016 AT TIME STEP     10, STRESS PERIOD     22
 UBDSV06 SAVING              CHD IN MODEL TEST_TRANS       PACKAGE TEST_TRANS      CONNECTED TO MODEL TEST_TRANS       PACKAGE CHD              ON UNIT   1016 AT TIME STEP     10, STRESS PERIOD     22

 HEAD WILL BE SAVED ON UNIT 1017 AT END OF TIME STEP   10, STRESS PERIOD   22


  VOLUME BUDGET FOR ENTIRE MODEL AT END OF TIME STEP   10, STRESS PERIOD  22
  ---------------------------------------------------------------------------------------------------

     CUMULATIVE VOLUME      L**3       RATES FOR THIS TIME STEP      L**3/T          PACKAGE NAME    
     ------------------                 ------------------------                     ----------------

           IN:                                      IN:
           ---                                      ---
              STO-SS =          31.5034                STO-SS =           0.0000     STORAGE         
              STO-SY =       19980.3462                STO-SY =           0.0000     STORAGE         
                 RCH =       98917.8525                   RCH =         190.6849     RCHA            
                 CHD =         141.1190                   CHD =           0.0000     CHD             

            TOTAL IN =      119070.8212              TOTAL IN =         190.6849

          OUT:                                     OUT:
          ----                                     ----
              STO-SS =          21.8338                STO-SS =       5.1885E-02     STORAGE         
              STO-SY =       14162.4224                STO-SY =          32.7043     STORAGE         
                 RCH =           0.0000                   RCH =           0.0000     RCHA            
                 CHD =      104886.8750                   CHD =         157.9449     CHD             

           TOTAL OUT =      119071.1312             TOTAL OUT =         190.7011

            IN - OUT =          -0.3100              IN - OUT =      -1.6243E-02

 PERCENT DISCREPANCY =          -0.00     PERCENT DISCREPANCY =          -0.01




         TIME SUMMARY AT END OF TIME STEP   10 IN STRESS PERIOD   22
                    SECONDS     MINUTES      HOURS       DAYS        YEARS
                    -----------------------------------------------------------
   TIME STEP LENGTH 2.59200E+05  4320.0      72.000      3.0000     8.21355E-03
 STRESS PERIOD TIME 2.59200E+06  43200.      720.00      30.000     8.21355E-02
         TOTAL TIME 5.45184E+07 9.08640E+05  15144.      631.00      1.7276    

 OUTPUT CONTROL FOR STRESS PERIOD 23 IS REPEATED USING SETTINGS FROM A PREVIOUS STRESS PERIOD.


 STRESS PERIOD 23 IS TRANSIENT


                 RECHARGE =  0.2465750E-02
 UBDSV1 SAVING           STO-SS ON UNIT   1016 AT TIME STEP      1, STRESS PERIOD     23
 UBDSV1 SAVING           STO-SY ON UNIT   1016 AT TIME STEP      1, STRESS PERIOD     23
 UBDSV1 SAVING     FLOW-JA-FACE ON UNIT   1016 AT TIME STEP      1, STRESS PERIOD     23
 UBDSV06 SAVING              RCH IN MODEL TEST_TRANS       PACKAGE TEST_TRANS      CONNECTED TO MODEL TEST_TRANS       PACKAGE RCHA             ON UNIT   1016 AT TIME STEP      1, STRESS PERIOD     23
 UBDSV06 SAVING              CHD IN MODEL TEST_TRANS       PACKAGE TEST_TRANS      CONNECTED TO MODEL TEST_TRANS       PACKAGE CHD              ON UNIT   1016 AT TIME STEP      1, STRESS PERIOD     23

 HEAD WILL BE SAVED ON UNIT 1017 AT END OF TIME STEP    1, STRESS PERIOD   23


  VOLUME BUDGET FOR ENTIRE MODEL AT END OF TIME STEP    1, STRESS PERIOD  23
  ---------------------------------------------------------------------------------------------------

     CUMULATIVE VOLUME      L**3       RATES FOR THIS TIME STEP      L**3/T          PACKAGE NAME    
     ------------------                 ------------------------                     ----------------

           IN:                                      IN:
           ---                                      ---
              STO-SS =          31.6272                STO-SS =       4.1249E-02     STORAGE         
              STO-SY =       20068.0485                STO-SY =          29.2341     STORAGE         
                 RCH =       99561.4133                   RCH =         214.5203     RCHA            
                 CHD =         141.1190                   CHD =           0.0000     CHD             

            TOTAL IN =      119802.2079              TOTAL IN =         243.7956

          OUT:                                     OUT:
          ----                                     ----
              STO-SS =          22.0636                STO-SS =       7.6598E-02     STORAGE         
              STO-SY =       14306.8877                STO-SY =          48.1551     STORAGE         
                 RCH =           0.0000                   RCH =           0.0000     RCHA            
                 CHD =      105473.5820                   CHD =         195.5690     CHD             

           TOTAL OUT =      119802.5334             TOTAL OUT =         243.8007

            IN - OUT =          -0.3255              IN - OUT =      -5.1626E-03

 PERCENT DISCREPANCY =          -0.00     PERCENT DISCREPANCY =          -0.00




         TIME SUMMARY AT END OF TIME STEP    1 IN STRESS PERIOD   23
                    SECONDS     MINUTES      HOURS       DAYS        YEARS
                    -----------------------------------------------------------
   TIME STEP LENGTH 2.59200E+05  4320.0      72.000      3.0000     8.21355E-03
 STRESS PERIOD TIME 2.59200E+05  4320.0      72.000      3.0000     8.21355E-03
         TOTAL TIME 5.47776E+07 9.12960E+05  15216.      634.00      1.7358    
 UBDSV1 SAVING           STO-SS ON UNIT   1016 AT TIME STEP      2, STRESS PERIOD     23
 UBDSV1 SAVING           STO-SY ON UNIT   1016 AT TIME STEP      2, STRESS PERIOD     23
 UBDSV1 SAVING     FLOW-JA-FACE ON UNIT   1016 AT TIME STEP      2, STRESS PERIOD     23
 UBDSV06 SAVING              RCH IN MODEL TEST_TRANS       PACKAGE TEST_TRANS      CONNECTED TO MODEL TEST_TRANS       PACKAGE RCHA             ON UNIT   1016 AT TIME STEP      2, STRESS PERIOD     23
 UBDSV06 SAVING              CHD IN MODEL TEST_TRANS       PACKAGE TEST_TRANS      CONNECTED TO MODEL TEST_TRANS       PACKAGE CHD              ON UNIT   1016 AT TIME STEP      2, STRESS PERIOD     23

 HEAD WILL BE SAVED ON UNIT 1017 AT END OF TIME STEP    2, STRESS PERIOD   23


  VOLUME BUDGET FOR ENTIRE MODEL AT END OF TIME STEP    2, STRESS PERIOD  23
  ---------------------------------------------------------------------------------------------------

     CUMULATIVE VOLUME      L**3       RATES FOR THIS TIME STEP      L**3/T          PACKAGE NAME    
     ------------------                 ------------------------                     ----------------

           IN:                                      IN:
           ---                                      ---
              STO-SS =          31.6873                STO-SS =       2.0037E-02     STORAGE         
              STO-SY =       20110.3042                STO-SY =          14.0852     STORAGE         
                 RCH =      100204.9740                   RCH =         214.5203     RCHA            
                 CHD =         141.1190                   CHD =           0.0000     CHD             

            TOTAL IN =      120488.0845              TOTAL IN =         228.6255

          OUT:                                     OUT:
          ----                                     ----
              STO-SS =          22.2809                STO-SS =       7.2444E-02     STORAGE         
              STO-SY =       14443.1754                STO-SY =          45.4292     STORAGE         
                 RCH =           0.0000                   RCH =           0.0000     RCHA            
                 CHD =      106022.9683                   CHD =         183.1287     CHD             

           TOTAL OUT =      120488.4246             TOTAL OUT =         228.6304

            IN - OUT =          -0.3401              IN - OUT =      -4.8709E-03

 PERCENT DISCREPANCY =          -0.00     PERCENT DISCREPANCY =          -0.00




         TIME SUMMARY AT END OF TIME STEP    2 IN STRESS PERIOD   23
                    SECONDS     MINUTES      HOURS       DAYS        YEARS
                    -----------------------------------------------------------
   TIME STEP LENGTH 2.59200E+05  4320.0      72.000      3.0000     8.21355E-03
 STRESS PERIOD TIME 5.18400E+05  8640.0      144.00      6.0000     1.64271E-02
         TOTAL TIME 5.50368E+07 9.17280E+05  15288.      637.00      1.7440    
 UBDSV1 SAVING           STO-SS ON UNIT   1016 AT TIME STEP      3, STRESS PERIOD     23
 UBDSV1 SAVING           STO-SY ON UNIT   1016 AT TIME STEP      3, STRESS PERIOD     23
 UBDSV1 SAVING     FLOW-JA-FACE ON UNIT   1016 AT TIME STEP      3, STRESS PERIOD     23
 UBDSV06 SAVING              RCH IN MODEL TEST_TRANS       PACKAGE TEST_TRANS      CONNECTED TO MODEL TEST_TRANS       PACKAGE RCHA             ON UNIT   1016 AT TIME STEP      3, STRESS PERIOD     23
 UBDSV06 SAVING              CHD IN MODEL TEST_TRANS       PACKAGE TEST_TRANS      CONNECTED TO MODEL TEST_TRANS       PACKAGE CHD              ON UNIT   1016 AT TIME STEP      3, STRESS PERIOD     23

 HEAD WILL BE SAVED ON UNIT 1017 AT END OF TIME STEP    3, STRESS PERIOD   23


  VOLUME BUDGET FOR ENTIRE MODEL AT END OF TIME STEP    3, STRESS PERIOD  23
  ---------------------------------------------------------------------------------------------------

     CUMULATIVE VOLUME      L**3       RATES FOR THIS TIME STEP      L**3/T          PACKAGE NAME    
     ------------------                 ------------------------                     ----------------

           IN:                                      IN:
           ---                                      ---
              STO-SS =          31.7197                STO-SS =       1.0817E-02     STORAGE         
              STO-SY =       20132.9995                STO-SY =           7.5651     STORAGE         
                 RCH =      100848.5348                   RCH =         214.5203     RCHA            
                 CHD =         141.1190                   CHD =           0.0000     CHD             

            TOTAL IN =      121154.3730              TOTAL IN =         222.0962

          OUT:                                     OUT:
          ----                                     ----
              STO-SS =          22.4892                STO-SS =       6.9406E-02     STORAGE         
              STO-SY =       14573.5399                STO-SY =          43.4548     STORAGE         
                 RCH =           0.0000                   RCH =           0.0000     RCHA            
                 CHD =      106558.6881                   CHD =         178.5733     CHD             

           TOTAL OUT =      121154.7171             TOTAL OUT =         222.0975

            IN - OUT =          -0.3441              IN - OUT =      -1.3409E-03

 PERCENT DISCREPANCY =          -0.00     PERCENT DISCREPANCY =          -0.00




         TIME SUMMARY AT END OF TIME STEP    3 IN STRESS PERIOD   23
                    SECONDS     MINUTES      HOURS       DAYS        YEARS
                    -----------------------------------------------------------
   TIME STEP LENGTH 2.59200E+05  4320.0      72.000      3.0000     8.21355E-03
 STRESS PERIOD TIME 7.77600E+05  12960.      216.00      9.0000     2.46407E-02
         TOTAL TIME 5.52960E+07 9.21600E+05  15360.      640.00      1.7522    
 UBDSV1 SAVING           STO-SS ON UNIT   1016 AT TIME STEP      4, STRESS PERIOD     23
 UBDSV1 SAVING           STO-SY ON UNIT   1016 AT TIME STEP      4, STRESS PERIOD     23
 UBDSV1 SAVING     FLOW-JA-FACE ON UNIT   1016 AT TIME STEP      4, STRESS PERIOD     23
 UBDSV06 SAVING              RCH IN MODEL TEST_TRANS       PACKAGE TEST_TRANS      CONNECTED TO MODEL TEST_TRANS       PACKAGE RCHA             ON UNIT   1016 AT TIME STEP      4, STRESS PERIOD     23
 UBDSV06 SAVING              CHD IN MODEL TEST_TRANS       PACKAGE TEST_TRANS      CONNECTED TO MODEL TEST_TRANS       PACKAGE CHD              ON UNIT   1016 AT TIME STEP      4, STRESS PERIOD     23

 HEAD WILL BE SAVED ON UNIT 1017 AT END OF TIME STEP    4, STRESS PERIOD   23


  VOLUME BUDGET FOR ENTIRE MODEL AT END OF TIME STEP    4, STRESS PERIOD  23
  ---------------------------------------------------------------------------------------------------

     CUMULATIVE VOLUME      L**3       RATES FOR THIS TIME STEP      L**3/T          PACKAGE NAME    
     ------------------                 ------------------------                     ----------------

           IN:                                      IN:
           ---                                      ---
              STO-SS =          31.7371                STO-SS =       5.7908E-03     STORAGE         
              STO-SY =       20145.1305                STO-SY =           4.0437     STORAGE         
                 RCH =      101492.0955                   RCH =         214.5203     RCHA            
                 CHD =         141.1190                   CHD =           0.0000     CHD             

            TOTAL IN =      121810.0821              TOTAL IN =         218.5697

          OUT:                                     OUT:
          ----                                     ----
              STO-SS =          22.6905                STO-SS =       6.7128E-02     STORAGE         
              STO-SY =       14699.4939                STO-SY =          41.9847     STORAGE         
                 RCH =           0.0000                   RCH =           0.0000     RCHA            
                 CHD =      107088.2438                   CHD =         176.5186     CHD             

           TOTAL OUT =      121810.4282             TOTAL OUT =         218.5704

            IN - OUT =          -0.3461              IN - OUT =      -6.6025E-04

 PERCENT DISCREPANCY =          -0.00     PERCENT DISCREPANCY =          -0.00




         TIME SUMMARY AT END OF TIME STEP    4 IN STRESS PERIOD   23
                    SECONDS     MINUTES      HOURS       DAYS        YEARS
                    -----------------------------------------------------------
   TIME STEP LENGTH 2.59200E+05  4320.0      72.000      3.0000     8.21355E-03
 STRESS PERIOD TIME 1.03680E+06  17280.      288.00      12.000     3.28542E-02
         TOTAL TIME 5.55552E+07 9.25920E+05  15432.      643.00      1.7604    
 UBDSV1 SAVING           STO-SS ON UNIT   1016 AT TIME STEP      5, STRESS PERIOD     23
 UBDSV1 SAVING           STO-SY ON UNIT   1016 AT TIME STEP      5, STRESS PERIOD     23
 UBDSV1 SAVING     FLOW-JA-FACE ON UNIT   1016 AT TIME STEP      5, STRESS PERIOD     23
 UBDSV06 SAVING              RCH IN MODEL TEST_TRANS       PACKAGE TEST_TRANS      CONNECTED TO MODEL TEST_TRANS       PACKAGE RCHA             ON UNIT   1016 AT TIME STEP      5, STRESS PERIOD     23
 UBDSV06 SAVING              CHD IN MODEL TEST_TRANS       PACKAGE TEST_TRANS      CONNECTED TO MODEL TEST_TRANS       PACKAGE CHD              ON UNIT   1016 AT TIME STEP      5, STRESS PERIOD     23

 HEAD WILL BE SAVED ON UNIT 1017 AT END OF TIME STEP    5, STRESS PERIOD   23


  VOLUME BUDGET FOR ENTIRE MODEL AT END OF TIME STEP    5, STRESS PERIOD  23
  ---------------------------------------------------------------------------------------------------

     CUMULATIVE VOLUME      L**3       RATES FOR THIS TIME STEP      L**3/T          PACKAGE NAME    
     ------------------                 ------------------------                     ----------------

           IN:                                      IN:
           ---                                      ---
              STO-SS =          31.7454                STO-SS =       2.7715E-03     STORAGE         
              STO-SY =       20150.9486                STO-SY =           1.9394     STORAGE         
                 RCH =      102135.6563                   RCH =         214.5203     RCHA            
                 CHD =         141.1190                   CHD =           0.0000     CHD             

            TOTAL IN =      122459.4693              TOTAL IN =         216.4624

          OUT:                                     OUT:
          ----                                     ----
              STO-SS =          22.8868                STO-SS =       6.5410E-02     STORAGE         
              STO-SY =       14822.1476                STO-SY =          40.8846     STORAGE         
                 RCH =           0.0000                   RCH =           0.0000     RCHA            
                 CHD =      107614.7842                   CHD =         175.5135     CHD             

           TOTAL OUT =      122459.8186             TOTAL OUT =         216.4635

            IN - OUT =          -0.3493              IN - OUT =      -1.0747E-03

 PERCENT DISCREPANCY =          -0.00     PERCENT DISCREPANCY =          -0.00




         TIME SUMMARY AT END OF TIME STEP    5 IN STRESS PERIOD   23
                    SECONDS     MINUTES      HOURS       DAYS        YEARS
                    -----------------------------------------------------------
   TIME STEP LENGTH 2.59200E+05  4320.0      72.000      3.0000     8.21355E-03
 STRESS PERIOD TIME 1.29600E+06  21600.      360.00      15.000     4.10678E-02
         TOTAL TIME 5.58144E+07 9.30240E+05  15504.      646.00      1.7687    
 UBDSV1 SAVING           STO-SS ON UNIT   1016 AT TIME STEP      6, STRESS PERIOD     23
 UBDSV1 SAVING           STO-SY ON UNIT   1016 AT TIME STEP      6, STRESS PERIOD     23
 UBDSV1 SAVING     FLOW-JA-FACE ON UNIT   1016 AT TIME STEP      6, STRESS PERIOD     23
 UBDSV06 SAVING              RCH IN MODEL TEST_TRANS       PACKAGE TEST_TRANS      CONNECTED TO MODEL TEST_TRANS       PACKAGE RCHA             ON UNIT   1016 AT TIME STEP      6, STRESS PERIOD     23
 UBDSV06 SAVING              CHD IN MODEL TEST_TRANS       PACKAGE TEST_TRANS      CONNECTED TO MODEL TEST_TRANS       PACKAGE CHD              ON UNIT   1016 AT TIME STEP      6, STRESS PERIOD     23

 HEAD WILL BE SAVED ON UNIT 1017 AT END OF TIME STEP    6, STRESS PERIOD   23


  VOLUME BUDGET FOR ENTIRE MODEL AT END OF TIME STEP    6, STRESS PERIOD  23
  ---------------------------------------------------------------------------------------------------

     CUMULATIVE VOLUME      L**3       RATES FOR THIS TIME STEP      L**3/T          PACKAGE NAME    
     ------------------                 ------------------------                     ----------------

           IN:                                      IN:
           ---                                      ---
              STO-SS =          31.7485                STO-SS =       1.0442E-03     STORAGE         
              STO-SY =       20153.1526                STO-SY =           0.7347     STORAGE         
                 RCH =      102779.2170                   RCH =         214.5203     RCHA            
                 CHD =         141.1190                   CHD =           0.0000     CHD             

            TOTAL IN =      123105.2372              TOTAL IN =         215.2560

          OUT:                                     OUT:
          ----                                     ----
              STO-SS =          23.0795                STO-SS =       6.4244E-02     STORAGE         
              STO-SY =       14942.5964                STO-SY =          40.1496     STORAGE         
                 RCH =           0.0000                   RCH =           0.0000     RCHA            
                 CHD =      108139.9147                   CHD =         175.0435     CHD             

           TOTAL OUT =      123105.5907             TOTAL OUT =         215.2574

            IN - OUT =          -0.3535              IN - OUT =      -1.3926E-03

 PERCENT DISCREPANCY =          -0.00     PERCENT DISCREPANCY =          -0.00




         TIME SUMMARY AT END OF TIME STEP    6 IN STRESS PERIOD   23
                    SECONDS     MINUTES      HOURS       DAYS        YEARS
                    -----------------------------------------------------------
   TIME STEP LENGTH 2.59200E+05  4320.0      72.000      3.0000     8.21355E-03
 STRESS PERIOD TIME 1.55520E+06  25920.      432.00      18.000     4.92813E-02
         TOTAL TIME 5.60736E+07 9.34560E+05  15576.      649.00      1.7769    
 UBDSV1 SAVING           STO-SS ON UNIT   1016 AT TIME STEP      7, STRESS PERIOD     23
 UBDSV1 SAVING           STO-SY ON UNIT   1016 AT TIME STEP      7, STRESS PERIOD     23
 UBDSV1 SAVING     FLOW-JA-FACE ON UNIT   1016 AT TIME STEP      7, STRESS PERIOD     23
 UBDSV06 SAVING              RCH IN MODEL TEST_TRANS       PACKAGE TEST_TRANS      CONNECTED TO MODEL TEST_TRANS       PACKAGE RCHA             ON UNIT   1016 AT TIME STEP      7, STRESS PERIOD     23
 UBDSV06 SAVING              CHD IN MODEL TEST_TRANS       PACKAGE TEST_TRANS      CONNECTED TO MODEL TEST_TRANS       PACKAGE CHD              ON UNIT   1016 AT TIME STEP      7, STRESS PERIOD     23

 HEAD WILL BE SAVED ON UNIT 1017 AT END OF TIME STEP    7, STRESS PERIOD   23


  VOLUME BUDGET FOR ENTIRE MODEL AT END OF TIME STEP    7, STRESS PERIOD  23
  ---------------------------------------------------------------------------------------------------

     CUMULATIVE VOLUME      L**3       RATES FOR THIS TIME STEP      L**3/T          PACKAGE NAME    
     ------------------                 ------------------------                     ----------------

           IN:                                      IN:
           ---                                      ---
              STO-SS =          31.7492                STO-SS =       2.1210E-04     STORAGE         
              STO-SY =       20153.6048                STO-SY =           0.1507     STORAGE         
                 RCH =      103422.7778                   RCH =         214.5203     RCHA            
                 CHD =         141.1190                   CHD =           0.0000     CHD             

            TOTAL IN =      123749.2507              TOTAL IN =         214.6712

          OUT:                                     OUT:
          ----                                     ----
              STO-SS =          23.2702                STO-SS =       6.3560E-02     STORAGE         
              STO-SY =       15061.8043                STO-SY =          39.7360     STORAGE         
                 RCH =           0.0000                   RCH =           0.0000     RCHA            
                 CHD =      108664.5527                   CHD =         174.8793     CHD             

           TOTAL OUT =      123749.6272             TOTAL OUT =         214.6788

            IN - OUT =          -0.3765              IN - OUT =      -7.6730E-03

 PERCENT DISCREPANCY =          -0.00     PERCENT DISCREPANCY =          -0.00




         TIME SUMMARY AT END OF TIME STEP    7 IN STRESS PERIOD   23
                    SECONDS     MINUTES      HOURS       DAYS        YEARS
                    -----------------------------------------------------------
   TIME STEP LENGTH 2.59200E+05  4320.0      72.000      3.0000     8.21355E-03
 STRESS PERIOD TIME 1.81440E+06  30240.      504.00      21.000     5.74949E-02
         TOTAL TIME 5.63328E+07 9.38880E+05  15648.      652.00      1.7851    
 UBDSV1 SAVING           STO-SS ON UNIT   1016 AT TIME STEP      8, STRESS PERIOD     23
 UBDSV1 SAVING           STO-SY ON UNIT   1016 AT TIME STEP      8, STRESS PERIOD     23
 UBDSV1 SAVING     FLOW-JA-FACE ON UNIT   1016 AT TIME STEP      8, STRESS PERIOD     23
 UBDSV06 SAVING              RCH IN MODEL TEST_TRANS       PACKAGE TEST_TRANS      CONNECTED TO MODEL TEST_TRANS       PACKAGE RCHA             ON UNIT   1016 AT TIME STEP      8, STRESS PERIOD     23
 UBDSV06 SAVING              CHD IN MODEL TEST_TRANS       PACKAGE TEST_TRANS      CONNECTED TO MODEL TEST_TRANS       PACKAGE CHD              ON UNIT   1016 AT TIME STEP      8, STRESS PERIOD     23

 HEAD WILL BE SAVED ON UNIT 1017 AT END OF TIME STEP    8, STRESS PERIOD   23


  VOLUME BUDGET FOR ENTIRE MODEL AT END OF TIME STEP    8, STRESS PERIOD  23
  ---------------------------------------------------------------------------------------------------

     CUMULATIVE VOLUME      L**3       RATES FOR THIS TIME STEP      L**3/T          PACKAGE NAME    
     ------------------                 ------------------------                     ----------------

           IN:                                      IN:
           ---                                      ---
              STO-SS =          31.7492                STO-SS =           0.0000     STORAGE         
              STO-SY =       20153.6048                STO-SY =           0.0000     STORAGE         
                 RCH =      104066.3385                   RCH =         214.5203     RCHA            
                 CHD =         141.1190                   CHD =           0.0000     CHD             

            TOTAL IN =      124392.8115              TOTAL IN =         214.5203

          OUT:                                     OUT:
          ----                                     ----
              STO-SS =          23.4598                STO-SS =       6.3210E-02     STORAGE         
              STO-SY =       15180.4594                STO-SY =          39.5517     STORAGE         
                 RCH =           0.0000                   RCH =           0.0000     RCHA            
                 CHD =      109189.3072                   CHD =         174.9182     CHD             

           TOTAL OUT =      124393.2264             TOTAL OUT =         214.5331

            IN - OUT =          -0.4149              IN - OUT =      -1.2806E-02

 PERCENT DISCREPANCY =          -0.00     PERCENT DISCREPANCY =          -0.01




         TIME SUMMARY AT END OF TIME STEP    8 IN STRESS PERIOD   23
                    SECONDS     MINUTES      HOURS       DAYS        YEARS
                    -----------------------------------------------------------
   TIME STEP LENGTH 2.59200E+05  4320.0      72.000      3.0000     8.21355E-03
 STRESS PERIOD TIME 2.07360E+06  34560.      576.00      24.000     6.57084E-02
         TOTAL TIME 5.65920E+07 9.43200E+05  15720.      655.00      1.7933    
 UBDSV1 SAVING           STO-SS ON UNIT   1016 AT TIME STEP      9, STRESS PERIOD     23
 UBDSV1 SAVING           STO-SY ON UNIT   1016 AT TIME STEP      9, STRESS PERIOD     23
 UBDSV1 SAVING     FLOW-JA-FACE ON UNIT   1016 AT TIME STEP      9, STRESS PERIOD     23
 UBDSV06 SAVING              RCH IN MODEL TEST_TRANS       PACKAGE TEST_TRANS      CONNECTED TO MODEL TEST_TRANS       PACKAGE RCHA             ON UNIT   1016 AT TIME STEP      9, STRESS PERIOD     23
 UBDSV06 SAVING              CHD IN MODEL TEST_TRANS       PACKAGE TEST_TRANS      CONNECTED TO MODEL TEST_TRANS       PACKAGE CHD              ON UNIT   1016 AT TIME STEP      9, STRESS PERIOD     23

 HEAD WILL BE SAVED ON UNIT 1017 AT END OF TIME STEP    9, STRESS PERIOD   23


  VOLUME BUDGET FOR ENTIRE MODEL AT END OF TIME STEP    9, STRESS PERIOD  23
  ---------------------------------------------------------------------------------------------------

     CUMULATIVE VOLUME      L**3       RATES FOR THIS TIME STEP      L**3/T          PACKAGE NAME    
     ------------------                 ------------------------                     ----------------

           IN:                                      IN:
           ---                                      ---
              STO-SS =          31.7492                STO-SS =           0.0000     STORAGE         
              STO-SY =       20153.6048                STO-SY =           0.0000     STORAGE         
                 RCH =      104709.8993                   RCH =         214.5203     RCHA            
                 CHD =         141.1190                   CHD =           0.0000     CHD             

            TOTAL IN =      125036.3722              TOTAL IN =         214.5203

          OUT:                                     OUT:
          ----                                     ----
              STO-SS =          23.6485                STO-SS =       6.2887E-02     STORAGE         
              STO-SY =       15298.6136                STO-SY =          39.3848     STORAGE         
                 RCH =           0.0000                   RCH =           0.0000     RCHA            
                 CHD =      109714.5761                   CHD =         175.0896     CHD             

           TOTAL OUT =      125036.8382             TOTAL OUT =         214.5373

            IN - OUT =          -0.4660              IN - OUT =      -1.7025E-02

 PERCENT DISCREPANCY =          -0.00     PERCENT DISCREPANCY =          -0.01




         TIME SUMMARY AT END OF TIME STEP    9 IN STRESS PERIOD   23
                    SECONDS     MINUTES      HOURS       DAYS        YEARS
                    -----------------------------------------------------------
   TIME STEP LENGTH 2.59200E+05  4320.0      72.000      3.0000     8.21355E-03
 STRESS PERIOD TIME 2.33280E+06  38880.      648.00      27.000     7.39220E-02
         TOTAL TIME 5.68512E+07 9.47520E+05  15792.      658.00      1.8015    
 UBDSV1 SAVING           STO-SS ON UNIT   1016 AT TIME STEP     10, STRESS PERIOD     23
 UBDSV1 SAVING           STO-SY ON UNIT   1016 AT TIME STEP     10, STRESS PERIOD     23
 UBDSV1 SAVING     FLOW-JA-FACE ON UNIT   1016 AT TIME STEP     10, STRESS PERIOD     23
 UBDSV06 SAVING              RCH IN MODEL TEST_TRANS       PACKAGE TEST_TRANS      CONNECTED TO MODEL TEST_TRANS       PACKAGE RCHA             ON UNIT   1016 AT TIME STEP     10, STRESS PERIOD     23
 UBDSV06 SAVING              CHD IN MODEL TEST_TRANS       PACKAGE TEST_TRANS      CONNECTED TO MODEL TEST_TRANS       PACKAGE CHD              ON UNIT   1016 AT TIME STEP     10, STRESS PERIOD     23

 HEAD WILL BE SAVED ON UNIT 1017 AT END OF TIME STEP   10, STRESS PERIOD   23


  VOLUME BUDGET FOR ENTIRE MODEL AT END OF TIME STEP   10, STRESS PERIOD  23
  ---------------------------------------------------------------------------------------------------

     CUMULATIVE VOLUME      L**3       RATES FOR THIS TIME STEP      L**3/T          PACKAGE NAME    
     ------------------                 ------------------------                     ----------------

           IN:                                      IN:
           ---                                      ---
              STO-SS =          31.7492                STO-SS =           0.0000     STORAGE         
              STO-SY =       20153.6048                STO-SY =           0.0000     STORAGE         
                 RCH =      105353.4600                   RCH =         214.5203     RCHA            
                 CHD =         141.1190                   CHD =           0.0000     CHD             

            TOTAL IN =      125679.9330              TOTAL IN =         214.5203

          OUT:                                     OUT:
          ----                                     ----
              STO-SS =          23.8358                STO-SS =       6.2435E-02     STORAGE         
              STO-SY =       15415.9914                STO-SY =          39.1259     STORAGE         
                 RCH =           0.0000                   RCH =           0.0000     RCHA            
                 CHD =      110240.6334                   CHD =         175.3524     CHD             

           TOTAL OUT =      125680.4607             TOTAL OUT =         214.5408

            IN - OUT =          -0.5277              IN - OUT =      -2.0563E-02

 PERCENT DISCREPANCY =          -0.00     PERCENT DISCREPANCY =          -0.01




         TIME SUMMARY AT END OF TIME STEP   10 IN STRESS PERIOD   23
                    SECONDS     MINUTES      HOURS       DAYS        YEARS
                    -----------------------------------------------------------
   TIME STEP LENGTH 2.59200E+05  4320.0      72.000      3.0000     8.21355E-03
 STRESS PERIOD TIME 2.59200E+06  43200.      720.00      30.000     8.21355E-02
         TOTAL TIME 5.71104E+07 9.51840E+05  15864.      661.00      1.8097    

 OUTPUT CONTROL FOR STRESS PERIOD 24 IS REPEATED USING SETTINGS FROM A PREVIOUS STRESS PERIOD.


 STRESS PERIOD 24 IS TRANSIENT


                 RECHARGE =  0.2739730E-02
 UBDSV1 SAVING           STO-SS ON UNIT   1016 AT TIME STEP      1, STRESS PERIOD     24
 UBDSV1 SAVING           STO-SY ON UNIT   1016 AT TIME STEP      1, STRESS PERIOD     24
 UBDSV1 SAVING     FLOW-JA-FACE ON UNIT   1016 AT TIME STEP      1, STRESS PERIOD     24
 UBDSV06 SAVING              RCH IN MODEL TEST_TRANS       PACKAGE TEST_TRANS      CONNECTED TO MODEL TEST_TRANS       PACKAGE RCHA             ON UNIT   1016 AT TIME STEP      1, STRESS PERIOD     24
 UBDSV06 SAVING              CHD IN MODEL TEST_TRANS       PACKAGE TEST_TRANS      CONNECTED TO MODEL TEST_TRANS       PACKAGE CHD              ON UNIT   1016 AT TIME STEP      1, STRESS PERIOD     24

 HEAD WILL BE SAVED ON UNIT 1017 AT END OF TIME STEP    1, STRESS PERIOD   24


  VOLUME BUDGET FOR ENTIRE MODEL AT END OF TIME STEP    1, STRESS PERIOD  24
  ---------------------------------------------------------------------------------------------------

     CUMULATIVE VOLUME      L**3       RATES FOR THIS TIME STEP      L**3/T          PACKAGE NAME    
     ------------------                 ------------------------                     ----------------

           IN:                                      IN:
           ---                                      ---
              STO-SS =          31.8636                STO-SS =       3.8127E-02     STORAGE         
              STO-SY =       20235.2414                STO-SY =          27.2122     STORAGE         
                 RCH =      106068.5296                   RCH =         238.3565     RCHA            
                 CHD =         141.1190                   CHD =           0.0000     CHD             

            TOTAL IN =      126476.7535              TOTAL IN =         265.6069

          OUT:                                     OUT:
          ----                                     ----
              STO-SS =          24.0973                STO-SS =       8.7184E-02     STORAGE         
              STO-SY =       15579.4514                STO-SY =          54.4867     STORAGE         
                 RCH =           0.0000                   RCH =           0.0000     RCHA            
                 CHD =      110873.7390                   CHD =         211.0352     CHD             

           TOTAL OUT =      126477.2878             TOTAL OUT =         265.6090

            IN - OUT =          -0.5342              IN - OUT =      -2.1813E-03

 PERCENT DISCREPANCY =          -0.00     PERCENT DISCREPANCY =          -0.00




         TIME SUMMARY AT END OF TIME STEP    1 IN STRESS PERIOD   24
                    SECONDS     MINUTES      HOURS       DAYS        YEARS
                    -----------------------------------------------------------
   TIME STEP LENGTH 2.59200E+05  4320.0      72.000      3.0000     8.21355E-03
 STRESS PERIOD TIME 2.59200E+05  4320.0      72.000      3.0000     8.21355E-03
         TOTAL TIME 5.73696E+07 9.56160E+05  15936.      664.00      1.8179    
 UBDSV1 SAVING           STO-SS ON UNIT   1016 AT TIME STEP      2, STRESS PERIOD     24
 UBDSV1 SAVING           STO-SY ON UNIT   1016 AT TIME STEP      2, STRESS PERIOD     24
 UBDSV1 SAVING     FLOW-JA-FACE ON UNIT   1016 AT TIME STEP      2, STRESS PERIOD     24
 UBDSV06 SAVING              RCH IN MODEL TEST_TRANS       PACKAGE TEST_TRANS      CONNECTED TO MODEL TEST_TRANS       PACKAGE RCHA             ON UNIT   1016 AT TIME STEP      2, STRESS PERIOD     24
 UBDSV06 SAVING              CHD IN MODEL TEST_TRANS       PACKAGE TEST_TRANS      CONNECTED TO MODEL TEST_TRANS       PACKAGE CHD              ON UNIT   1016 AT TIME STEP      2, STRESS PERIOD     24

 HEAD WILL BE SAVED ON UNIT 1017 AT END OF TIME STEP    2, STRESS PERIOD   24


  VOLUME BUDGET FOR ENTIRE MODEL AT END OF TIME STEP    2, STRESS PERIOD  24
  ---------------------------------------------------------------------------------------------------

     CUMULATIVE VOLUME      L**3       RATES FOR THIS TIME STEP      L**3/T          PACKAGE NAME    
     ------------------                 ------------------------                     ----------------

           IN:                                      IN:
           ---                                      ---
              STO-SS =          31.9176                STO-SS =       1.8028E-02     STORAGE         
              STO-SY =       20273.5207                STO-SY =          12.7598     STORAGE         
                 RCH =      106783.5991                   RCH =         238.3565     RCHA            
                 CHD =         141.1190                   CHD =           0.0000     CHD             

            TOTAL IN =      127230.1564              TOTAL IN =         251.1343

          OUT:                                     OUT:
          ----                                     ----
              STO-SS =          24.3457                STO-SS =       8.2793E-02     STORAGE         
              STO-SY =       15734.2803                STO-SY =          51.6096     STORAGE         
                 RCH =           0.0000                   RCH =           0.0000     RCHA            
                 CHD =      111472.0835                   CHD =         199.4482     CHD             

           TOTAL OUT =      127230.7095             TOTAL OUT =         251.1406

            IN - OUT =          -0.5531              IN - OUT =      -6.2922E-03

 PERCENT DISCREPANCY =          -0.00     PERCENT DISCREPANCY =          -0.00




         TIME SUMMARY AT END OF TIME STEP    2 IN STRESS PERIOD   24
                    SECONDS     MINUTES      HOURS       DAYS        YEARS
                    -----------------------------------------------------------
   TIME STEP LENGTH 2.59200E+05  4320.0      72.000      3.0000     8.21355E-03
 STRESS PERIOD TIME 5.18400E+05  8640.0      144.00      6.0000     1.64271E-02
         TOTAL TIME 5.76288E+07 9.60480E+05  16008.      667.00      1.8261    
 UBDSV1 SAVING           STO-SS ON UNIT   1016 AT TIME STEP      3, STRESS PERIOD     24
 UBDSV1 SAVING           STO-SY ON UNIT   1016 AT TIME STEP      3, STRESS PERIOD     24
 UBDSV1 SAVING     FLOW-JA-FACE ON UNIT   1016 AT TIME STEP      3, STRESS PERIOD     24
 UBDSV06 SAVING              RCH IN MODEL TEST_TRANS       PACKAGE TEST_TRANS      CONNECTED TO MODEL TEST_TRANS       PACKAGE RCHA             ON UNIT   1016 AT TIME STEP      3, STRESS PERIOD     24
 UBDSV06 SAVING              CHD IN MODEL TEST_TRANS       PACKAGE TEST_TRANS      CONNECTED TO MODEL TEST_TRANS       PACKAGE CHD              ON UNIT   1016 AT TIME STEP      3, STRESS PERIOD     24

 HEAD WILL BE SAVED ON UNIT 1017 AT END OF TIME STEP    3, STRESS PERIOD   24


  VOLUME BUDGET FOR ENTIRE MODEL AT END OF TIME STEP    3, STRESS PERIOD  24
  ---------------------------------------------------------------------------------------------------

     CUMULATIVE VOLUME      L**3       RATES FOR THIS TIME STEP      L**3/T          PACKAGE NAME    
     ------------------                 ------------------------                     ----------------

           IN:                                      IN:
           ---                                      ---
              STO-SS =          31.9456                STO-SS =       9.3054E-03     STORAGE         
              STO-SY =       20293.1805                STO-SY =           6.5533     STORAGE         
                 RCH =      107498.6686                   RCH =         238.3565     RCHA            
                 CHD =         141.1190                   CHD =           0.0000     CHD             

            TOTAL IN =      127964.9137              TOTAL IN =         244.9191

          OUT:                                     OUT:
          ----                                     ----
              STO-SS =          24.5849                STO-SS =       7.9714E-02     STORAGE         
              STO-SY =       15883.1243                STO-SY =          49.6147     STORAGE         
                 RCH =           0.0000                   RCH =           0.0000     RCHA            
                 CHD =      112057.7636                   CHD =         195.2267     CHD             

           TOTAL OUT =      127965.4728             TOTAL OUT =         244.9211

            IN - OUT =          -0.5591              IN - OUT =      -1.9910E-03

 PERCENT DISCREPANCY =          -0.00     PERCENT DISCREPANCY =          -0.00




         TIME SUMMARY AT END OF TIME STEP    3 IN STRESS PERIOD   24
                    SECONDS     MINUTES      HOURS       DAYS        YEARS
                    -----------------------------------------------------------
   TIME STEP LENGTH 2.59200E+05  4320.0      72.000      3.0000     8.21355E-03
 STRESS PERIOD TIME 7.77600E+05  12960.      216.00      9.0000     2.46407E-02
         TOTAL TIME 5.78880E+07 9.64800E+05  16080.      670.00      1.8344    
 UBDSV1 SAVING           STO-SS ON UNIT   1016 AT TIME STEP      4, STRESS PERIOD     24
 UBDSV1 SAVING           STO-SY ON UNIT   1016 AT TIME STEP      4, STRESS PERIOD     24
 UBDSV1 SAVING     FLOW-JA-FACE ON UNIT   1016 AT TIME STEP      4, STRESS PERIOD     24
 UBDSV06 SAVING              RCH IN MODEL TEST_TRANS       PACKAGE TEST_TRANS      CONNECTED TO MODEL TEST_TRANS       PACKAGE RCHA             ON UNIT   1016 AT TIME STEP      4, STRESS PERIOD     24
 UBDSV06 SAVING              CHD IN MODEL TEST_TRANS       PACKAGE TEST_TRANS      CONNECTED TO MODEL TEST_TRANS       PACKAGE CHD              ON UNIT   1016 AT TIME STEP      4, STRESS PERIOD     24

 HEAD WILL BE SAVED ON UNIT 1017 AT END OF TIME STEP    4, STRESS PERIOD   24


  VOLUME BUDGET FOR ENTIRE MODEL AT END OF TIME STEP    4, STRESS PERIOD  24
  ---------------------------------------------------------------------------------------------------

     CUMULATIVE VOLUME      L**3       RATES FOR THIS TIME STEP      L**3/T          PACKAGE NAME    
     ------------------                 ------------------------                     ----------------

           IN:                                      IN:
           ---                                      ---
              STO-SS =          31.9593                STO-SS =       4.5889E-03     STORAGE         
              STO-SY =       20302.8696                STO-SY =           3.2297     STORAGE         
                 RCH =      108213.7382                   RCH =         238.3565     RCHA            
                 CHD =         141.1190                   CHD =           0.0000     CHD             

            TOTAL IN =      128689.6861              TOTAL IN =         241.5908

          OUT:                                     OUT:
          ----                                     ----
              STO-SS =          24.8171                STO-SS =       7.7408E-02     STORAGE         
              STO-SY =       16027.5253                STO-SY =          48.1337     STORAGE         
                 RCH =           0.0000                   RCH =           0.0000     RCHA            
                 CHD =      112637.9072                   CHD =         193.3812     CHD             

           TOTAL OUT =      128690.2496             TOTAL OUT =         241.5923

            IN - OUT =          -0.5636              IN - OUT =      -1.4974E-03

 PERCENT DISCREPANCY =          -0.00     PERCENT DISCREPANCY =          -0.00




         TIME SUMMARY AT END OF TIME STEP    4 IN STRESS PERIOD   24
                    SECONDS     MINUTES      HOURS       DAYS        YEARS
                    -----------------------------------------------------------
   TIME STEP LENGTH 2.59200E+05  4320.0      72.000      3.0000     8.21355E-03
 STRESS PERIOD TIME 1.03680E+06  17280.      288.00      12.000     3.28542E-02
         TOTAL TIME 5.81472E+07 9.69120E+05  16152.      673.00      1.8426    
 UBDSV1 SAVING           STO-SS ON UNIT   1016 AT TIME STEP      5, STRESS PERIOD     24
 UBDSV1 SAVING           STO-SY ON UNIT   1016 AT TIME STEP      5, STRESS PERIOD     24
 UBDSV1 SAVING     FLOW-JA-FACE ON UNIT   1016 AT TIME STEP      5, STRESS PERIOD     24
 UBDSV06 SAVING              RCH IN MODEL TEST_TRANS       PACKAGE TEST_TRANS      CONNECTED TO MODEL TEST_TRANS       PACKAGE RCHA             ON UNIT   1016 AT TIME STEP      5, STRESS PERIOD     24
 UBDSV06 SAVING              CHD IN MODEL TEST_TRANS       PACKAGE TEST_TRANS      CONNECTED TO MODEL TEST_TRANS       PACKAGE CHD              ON UNIT   1016 AT TIME STEP      5, STRESS PERIOD     24

 HEAD WILL BE SAVED ON UNIT 1017 AT END OF TIME STEP    5, STRESS PERIOD   24


  VOLUME BUDGET FOR ENTIRE MODEL AT END OF TIME STEP    5, STRESS PERIOD  24
  ---------------------------------------------------------------------------------------------------

     CUMULATIVE VOLUME      L**3       RATES FOR THIS TIME STEP      L**3/T          PACKAGE NAME    
     ------------------                 ------------------------                     ----------------

           IN:                                      IN:
           ---                                      ---
              STO-SS =          31.9650                STO-SS =       1.9087E-03     STORAGE         
              STO-SY =       20306.9134                STO-SY =           1.3480     STORAGE         
                 RCH =      108928.8077                   RCH =         238.3565     RCHA            
                 CHD =         141.1190                   CHD =           0.0000     CHD             

            TOTAL IN =      129408.8052              TOTAL IN =         239.7064

          OUT:                                     OUT:
          ----                                     ----
              STO-SS =          25.0444                STO-SS =       7.5764E-02     STORAGE         
              STO-SY =       16168.7974                STO-SY =          47.0907     STORAGE         
                 RCH =           0.0000                   RCH =           0.0000     RCHA            
                 CHD =      113215.5326                   CHD =         192.5418     CHD             

           TOTAL OUT =      129409.3744             TOTAL OUT =         239.7083

            IN - OUT =          -0.5692              IN - OUT =      -1.8787E-03

 PERCENT DISCREPANCY =          -0.00     PERCENT DISCREPANCY =          -0.00




         TIME SUMMARY AT END OF TIME STEP    5 IN STRESS PERIOD   24
                    SECONDS     MINUTES      HOURS       DAYS        YEARS
                    -----------------------------------------------------------
   TIME STEP LENGTH 2.59200E+05  4320.0      72.000      3.0000     8.21355E-03
 STRESS PERIOD TIME 1.29600E+06  21600.      360.00      15.000     4.10678E-02
         TOTAL TIME 5.84064E+07 9.73440E+05  16224.      676.00      1.8508    
 UBDSV1 SAVING           STO-SS ON UNIT   1016 AT TIME STEP      6, STRESS PERIOD     24
 UBDSV1 SAVING           STO-SY ON UNIT   1016 AT TIME STEP      6, STRESS PERIOD     24
 UBDSV1 SAVING     FLOW-JA-FACE ON UNIT   1016 AT TIME STEP      6, STRESS PERIOD     24
 UBDSV06 SAVING              RCH IN MODEL TEST_TRANS       PACKAGE TEST_TRANS      CONNECTED TO MODEL TEST_TRANS       PACKAGE RCHA             ON UNIT   1016 AT TIME STEP      6, STRESS PERIOD     24
 UBDSV06 SAVING              CHD IN MODEL TEST_TRANS       PACKAGE TEST_TRANS      CONNECTED TO MODEL TEST_TRANS       PACKAGE CHD              ON UNIT   1016 AT TIME STEP      6, STRESS PERIOD     24

 HEAD WILL BE SAVED ON UNIT 1017 AT END OF TIME STEP    6, STRESS PERIOD   24


  VOLUME BUDGET FOR ENTIRE MODEL AT END OF TIME STEP    6, STRESS PERIOD  24
  ---------------------------------------------------------------------------------------------------

     CUMULATIVE VOLUME      L**3       RATES FOR THIS TIME STEP      L**3/T          PACKAGE NAME    
     ------------------                 ------------------------                     ----------------

           IN:                                      IN:
           ---                                      ---
              STO-SS =          31.9665                STO-SS =       4.9889E-04     STORAGE         
              STO-SY =       20307.9804                STO-SY =           0.3557     STORAGE         
                 RCH =      109643.8772                   RCH =         238.3565     RCHA            
                 CHD =         141.1190                   CHD =           0.0000     CHD             

            TOTAL IN =      130124.9432              TOTAL IN =         238.7127

          OUT:                                     OUT:
          ----                                     ----
              STO-SS =          25.2684                STO-SS =       7.4684E-02     STORAGE         
              STO-SY =       16308.0656                STO-SY =          46.4227     STORAGE         
                 RCH =           0.0000                   RCH =           0.0000     RCHA            
                 CHD =      113792.1848                   CHD =         192.2174     CHD             

           TOTAL OUT =      130125.5189             TOTAL OUT =         238.7148

            IN - OUT =          -0.5757              IN - OUT =      -2.1683E-03

 PERCENT DISCREPANCY =          -0.00     PERCENT DISCREPANCY =          -0.00




         TIME SUMMARY AT END OF TIME STEP    6 IN STRESS PERIOD   24
                    SECONDS     MINUTES      HOURS       DAYS        YEARS
                    -----------------------------------------------------------
   TIME STEP LENGTH 2.59200E+05  4320.0      72.000      3.0000     8.21355E-03
 STRESS PERIOD TIME 1.55520E+06  25920.      432.00      18.000     4.92813E-02
         TOTAL TIME 5.86656E+07 9.77760E+05  16296.      679.00      1.8590    
 UBDSV1 SAVING           STO-SS ON UNIT   1016 AT TIME STEP      7, STRESS PERIOD     24
 UBDSV1 SAVING           STO-SY ON UNIT   1016 AT TIME STEP      7, STRESS PERIOD     24
 UBDSV1 SAVING     FLOW-JA-FACE ON UNIT   1016 AT TIME STEP      7, STRESS PERIOD     24
 UBDSV06 SAVING              RCH IN MODEL TEST_TRANS       PACKAGE TEST_TRANS      CONNECTED TO MODEL TEST_TRANS       PACKAGE RCHA             ON UNIT   1016 AT TIME STEP      7, STRESS PERIOD     24
 UBDSV06 SAVING              CHD IN MODEL TEST_TRANS       PACKAGE TEST_TRANS      CONNECTED TO MODEL TEST_TRANS       PACKAGE CHD              ON UNIT   1016 AT TIME STEP      7, STRESS PERIOD     24

 HEAD WILL BE SAVED ON UNIT 1017 AT END OF TIME STEP    7, STRESS PERIOD   24


  VOLUME BUDGET FOR ENTIRE MODEL AT END OF TIME STEP    7, STRESS PERIOD  24
  ---------------------------------------------------------------------------------------------------

     CUMULATIVE VOLUME      L**3       RATES FOR THIS TIME STEP      L**3/T          PACKAGE NAME    
     ------------------                 ------------------------                     ----------------

           IN:                                      IN:
           ---                                      ---
              STO-SS =          31.9666                STO-SS =       1.2097E-05     STORAGE         
              STO-SY =       20308.0068                STO-SY =       8.7943E-03     STORAGE         
                 RCH =      110358.9467                   RCH =         238.3565     RCHA            
                 CHD =         141.1190                   CHD =           0.0000     CHD             

            TOTAL IN =      130840.0391              TOTAL IN =         238.3653

          OUT:                                     OUT:
          ----                                     ----
              STO-SS =          25.4908                STO-SS =       7.4116E-02     STORAGE         
              STO-SY =       16446.3695                STO-SY =          46.1013     STORAGE         
                 RCH =           0.0000                   RCH =           0.0000     RCHA            
                 CHD =      114368.7615                   CHD =         192.1922     CHD             

           TOTAL OUT =      130840.6219             TOTAL OUT =         238.3677

            IN - OUT =          -0.5828              IN - OUT =      -2.3487E-03

 PERCENT DISCREPANCY =          -0.00     PERCENT DISCREPANCY =          -0.00




         TIME SUMMARY AT END OF TIME STEP    7 IN STRESS PERIOD   24
                    SECONDS     MINUTES      HOURS       DAYS        YEARS
                    -----------------------------------------------------------
   TIME STEP LENGTH 2.59200E+05  4320.0      72.000      3.0000     8.21355E-03
 STRESS PERIOD TIME 1.81440E+06  30240.      504.00      21.000     5.74949E-02
         TOTAL TIME 5.89248E+07 9.82080E+05  16368.      682.00      1.8672    
 UBDSV1 SAVING           STO-SS ON UNIT   1016 AT TIME STEP      8, STRESS PERIOD     24
 UBDSV1 SAVING           STO-SY ON UNIT   1016 AT TIME STEP      8, STRESS PERIOD     24
 UBDSV1 SAVING     FLOW-JA-FACE ON UNIT   1016 AT TIME STEP      8, STRESS PERIOD     24
 UBDSV06 SAVING              RCH IN MODEL TEST_TRANS       PACKAGE TEST_TRANS      CONNECTED TO MODEL TEST_TRANS       PACKAGE RCHA             ON UNIT   1016 AT TIME STEP      8, STRESS PERIOD     24
 UBDSV06 SAVING              CHD IN MODEL TEST_TRANS       PACKAGE TEST_TRANS      CONNECTED TO MODEL TEST_TRANS       PACKAGE CHD              ON UNIT   1016 AT TIME STEP      8, STRESS PERIOD     24

 HEAD WILL BE SAVED ON UNIT 1017 AT END OF TIME STEP    8, STRESS PERIOD   24


  VOLUME BUDGET FOR ENTIRE MODEL AT END OF TIME STEP    8, STRESS PERIOD  24
  ---------------------------------------------------------------------------------------------------

     CUMULATIVE VOLUME      L**3       RATES FOR THIS TIME STEP      L**3/T          PACKAGE NAME    
     ------------------                 ------------------------                     ----------------

           IN:                                      IN:
           ---                                      ---
              STO-SS =          31.9666                STO-SS =           0.0000     STORAGE         
              STO-SY =       20308.0068                STO-SY =           0.0000     STORAGE         
                 RCH =      111074.0163                   RCH =         238.3565     RCHA            
                 CHD =         141.1190                   CHD =           0.0000     CHD             

            TOTAL IN =      131555.1086              TOTAL IN =         238.3565

          OUT:                                     OUT:
          ----                                     ----
              STO-SS =          25.7121                STO-SS =       7.3789E-02     STORAGE         
              STO-SY =       16584.2118                STO-SY =          45.9474     STORAGE         
                 RCH =           0.0000                   RCH =           0.0000     RCHA            
                 CHD =      114945.8318                   CHD =         192.3567     CHD             

           TOTAL OUT =      131555.7557             TOTAL OUT =         238.3780

            IN - OUT =          -0.6471              IN - OUT =      -2.1449E-02

 PERCENT DISCREPANCY =          -0.00     PERCENT DISCREPANCY =          -0.01




         TIME SUMMARY AT END OF TIME STEP    8 IN STRESS PERIOD   24
                    SECONDS     MINUTES      HOURS       DAYS        YEARS
                    -----------------------------------------------------------
   TIME STEP LENGTH 2.59200E+05  4320.0      72.000      3.0000     8.21355E-03
 STRESS PERIOD TIME 2.07360E+06  34560.      576.00      24.000     6.57084E-02
         TOTAL TIME 5.91840E+07 9.86400E+05  16440.      685.00      1.8754    
 UBDSV1 SAVING           STO-SS ON UNIT   1016 AT TIME STEP      9, STRESS PERIOD     24
 UBDSV1 SAVING           STO-SY ON UNIT   1016 AT TIME STEP      9, STRESS PERIOD     24
 UBDSV1 SAVING     FLOW-JA-FACE ON UNIT   1016 AT TIME STEP      9, STRESS PERIOD     24
 UBDSV06 SAVING              RCH IN MODEL TEST_TRANS       PACKAGE TEST_TRANS      CONNECTED TO MODEL TEST_TRANS       PACKAGE RCHA             ON UNIT   1016 AT TIME STEP      9, STRESS PERIOD     24
 UBDSV06 SAVING              CHD IN MODEL TEST_TRANS       PACKAGE TEST_TRANS      CONNECTED TO MODEL TEST_TRANS       PACKAGE CHD              ON UNIT   1016 AT TIME STEP      9, STRESS PERIOD     24

 HEAD WILL BE SAVED ON UNIT 1017 AT END OF TIME STEP    9, STRESS PERIOD   24


  VOLUME BUDGET FOR ENTIRE MODEL AT END OF TIME STEP    9, STRESS PERIOD  24
  ---------------------------------------------------------------------------------------------------

     CUMULATIVE VOLUME      L**3       RATES FOR THIS TIME STEP      L**3/T          PACKAGE NAME    
     ------------------                 ------------------------                     ----------------

           IN:                                      IN:
           ---                                      ---
              STO-SS =          31.9666                STO-SS =           0.0000     STORAGE         
              STO-SY =       20308.0068                STO-SY =           0.0000     STORAGE         
                 RCH =      111789.0858                   RCH =         238.3565     RCHA            
                 CHD =         141.1190                   CHD =           0.0000     CHD             

            TOTAL IN =      132270.1782              TOTAL IN =         238.3565

          OUT:                                     OUT:
          ----                                     ----
              STO-SS =          25.9320                STO-SS =       7.3273E-02     STORAGE         
              STO-SY =       16721.1882                STO-SY =          45.6588     STORAGE         
                 RCH =           0.0000                   RCH =           0.0000     RCHA            
                 CHD =      115523.7847                   CHD =         192.6510     CHD             

           TOTAL OUT =      132270.9049             TOTAL OUT =         238.3830

            IN - OUT =          -0.7267              IN - OUT =      -2.6537E-02

 PERCENT DISCREPANCY =          -0.00     PERCENT DISCREPANCY =          -0.01




         TIME SUMMARY AT END OF TIME STEP    9 IN STRESS PERIOD   24
                    SECONDS     MINUTES      HOURS       DAYS        YEARS
                    -----------------------------------------------------------
   TIME STEP LENGTH 2.59200E+05  4320.0      72.000      3.0000     8.21355E-03
 STRESS PERIOD TIME 2.33280E+06  38880.      648.00      27.000     7.39220E-02
         TOTAL TIME 5.94432E+07 9.90720E+05  16512.      688.00      1.8836    
 UBDSV1 SAVING           STO-SS ON UNIT   1016 AT TIME STEP     10, STRESS PERIOD     24
 UBDSV1 SAVING           STO-SY ON UNIT   1016 AT TIME STEP     10, STRESS PERIOD     24
 UBDSV1 SAVING     FLOW-JA-FACE ON UNIT   1016 AT TIME STEP     10, STRESS PERIOD     24
 UBDSV06 SAVING              RCH IN MODEL TEST_TRANS       PACKAGE TEST_TRANS      CONNECTED TO MODEL TEST_TRANS       PACKAGE RCHA             ON UNIT   1016 AT TIME STEP     10, STRESS PERIOD     24
 UBDSV06 SAVING              CHD IN MODEL TEST_TRANS       PACKAGE TEST_TRANS      CONNECTED TO MODEL TEST_TRANS       PACKAGE CHD              ON UNIT   1016 AT TIME STEP     10, STRESS PERIOD     24

 HEAD WILL BE SAVED ON UNIT 1017 AT END OF TIME STEP   10, STRESS PERIOD   24


  VOLUME BUDGET FOR ENTIRE MODEL AT END OF TIME STEP   10, STRESS PERIOD  24
  ---------------------------------------------------------------------------------------------------

     CUMULATIVE VOLUME      L**3       RATES FOR THIS TIME STEP      L**3/T          PACKAGE NAME    
     ------------------                 ------------------------                     ----------------

           IN:                                      IN:
           ---                                      ---
              STO-SS =          31.9666                STO-SS =           0.0000     STORAGE         
              STO-SY =       20308.0068                STO-SY =           0.0000     STORAGE         
                 RCH =      112504.1553                   RCH =         238.3565     RCHA            
                 CHD =         141.1190                   CHD =           0.0000     CHD             

            TOTAL IN =      132985.2477              TOTAL IN =         238.3565

          OUT:                                     OUT:
          ----                                     ----
              STO-SS =          26.1499                STO-SS =       7.2634E-02     STORAGE         
              STO-SY =       16857.0326                STO-SY =          45.2815     STORAGE         
                 RCH =           0.0000                   RCH =           0.0000     RCHA            
                 CHD =      116102.8839                   CHD =         193.0331     CHD             

           TOTAL OUT =      132986.0664             TOTAL OUT =         238.3872

            IN - OUT =          -0.8187              IN - OUT =      -3.0647E-02

 PERCENT DISCREPANCY =          -0.00     PERCENT DISCREPANCY =          -0.01




         TIME SUMMARY AT END OF TIME STEP   10 IN STRESS PERIOD   24
                    SECONDS     MINUTES      HOURS       DAYS        YEARS
                    -----------------------------------------------------------
   TIME STEP LENGTH 2.59200E+05  4320.0      72.000      3.0000     8.21355E-03
 STRESS PERIOD TIME 2.59200E+06  43200.      720.00      30.000     8.21355E-02
         TOTAL TIME 5.97024E+07 9.95040E+05  16584.      691.00      1.8919    

 OUTPUT CONTROL FOR STRESS PERIOD 25 IS REPEATED USING SETTINGS FROM A PREVIOUS STRESS PERIOD.


 STRESS PERIOD 25 IS TRANSIENT


                 RECHARGE =  0.2739730E-02
 UBDSV1 SAVING           STO-SS ON UNIT   1016 AT TIME STEP      1, STRESS PERIOD     25
 UBDSV1 SAVING           STO-SY ON UNIT   1016 AT TIME STEP      1, STRESS PERIOD     25
 UBDSV1 SAVING     FLOW-JA-FACE ON UNIT   1016 AT TIME STEP      1, STRESS PERIOD     25
 UBDSV06 SAVING              RCH IN MODEL TEST_TRANS       PACKAGE TEST_TRANS      CONNECTED TO MODEL TEST_TRANS       PACKAGE RCHA             ON UNIT   1016 AT TIME STEP      1, STRESS PERIOD     25
 UBDSV06 SAVING              CHD IN MODEL TEST_TRANS       PACKAGE TEST_TRANS      CONNECTED TO MODEL TEST_TRANS       PACKAGE CHD              ON UNIT   1016 AT TIME STEP      1, STRESS PERIOD     25

 HEAD WILL BE SAVED ON UNIT 1017 AT END OF TIME STEP    1, STRESS PERIOD   25


  VOLUME BUDGET FOR ENTIRE MODEL AT END OF TIME STEP    1, STRESS PERIOD  25
  ---------------------------------------------------------------------------------------------------

     CUMULATIVE VOLUME      L**3       RATES FOR THIS TIME STEP      L**3/T          PACKAGE NAME    
     ------------------                 ------------------------                     ----------------

           IN:                                      IN:
           ---                                      ---
              STO-SS =          32.4374                STO-SS =           0.1569     STORAGE         
              STO-SY =       20645.9923                STO-SY =         112.6618     STORAGE         
                 RCH =      113219.2249                   RCH =         238.3565     RCHA            
                 CHD =         141.1190                   CHD =           0.0000     CHD             

            TOTAL IN =      134038.7736              TOTAL IN =         351.1753

          OUT:                                     OUT:
          ----                                     ----
              STO-SS =          26.3372                STO-SS =       6.2454E-02     STORAGE         
              STO-SY =       16972.6694                STO-SY =          38.5456     STORAGE         
                 RCH =           0.0000                   RCH =           0.0000     RCHA            
                 CHD =      117040.5827                   CHD =         312.5663     CHD             

           TOTAL OUT =      134039.5893             TOTAL OUT =         351.1743

            IN - OUT =          -0.8158              IN - OUT =       9.6644E-04

 PERCENT DISCREPANCY =          -0.00     PERCENT DISCREPANCY =           0.00




         TIME SUMMARY AT END OF TIME STEP    1 IN STRESS PERIOD   25
                    SECONDS     MINUTES      HOURS       DAYS        YEARS
                    -----------------------------------------------------------
   TIME STEP LENGTH 2.59200E+05  4320.0      72.000      3.0000     8.21355E-03
 STRESS PERIOD TIME 2.59200E+05  4320.0      72.000      3.0000     8.21355E-03
         TOTAL TIME 5.99616E+07 9.99360E+05  16656.      694.00      1.9001    
 UBDSV1 SAVING           STO-SS ON UNIT   1016 AT TIME STEP      2, STRESS PERIOD     25
 UBDSV1 SAVING           STO-SY ON UNIT   1016 AT TIME STEP      2, STRESS PERIOD     25
 UBDSV1 SAVING     FLOW-JA-FACE ON UNIT   1016 AT TIME STEP      2, STRESS PERIOD     25
 UBDSV06 SAVING              RCH IN MODEL TEST_TRANS       PACKAGE TEST_TRANS      CONNECTED TO MODEL TEST_TRANS       PACKAGE RCHA             ON UNIT   1016 AT TIME STEP      2, STRESS PERIOD     25
 UBDSV06 SAVING              CHD IN MODEL TEST_TRANS       PACKAGE TEST_TRANS      CONNECTED TO MODEL TEST_TRANS       PACKAGE CHD              ON UNIT   1016 AT TIME STEP      2, STRESS PERIOD     25

 HEAD WILL BE SAVED ON UNIT 1017 AT END OF TIME STEP    2, STRESS PERIOD   25


  VOLUME BUDGET FOR ENTIRE MODEL AT END OF TIME STEP    2, STRESS PERIOD  25
  ---------------------------------------------------------------------------------------------------

     CUMULATIVE VOLUME      L**3       RATES FOR THIS TIME STEP      L**3/T          PACKAGE NAME    
     ------------------                 ------------------------                     ----------------

           IN:                                      IN:
           ---                                      ---
              STO-SS =          32.7286                STO-SS =       9.7075E-02     STORAGE         
              STO-SY =       20852.8806                STO-SY =          68.9628     STORAGE         
                 RCH =      113934.2944                   RCH =         238.3565     RCHA            
                 CHD =         141.1190                   CHD =           0.0000     CHD             

            TOTAL IN =      134961.0227              TOTAL IN =         307.4164

          OUT:                                     OUT:
          ----                                     ----
              STO-SS =          26.5094                STO-SS =       5.7379E-02     STORAGE         
              STO-SY =       17078.5986                STO-SY =          35.3097     STORAGE         
                 RCH =           0.0000                   RCH =           0.0000     RCHA            
                 CHD =      117856.7592                   CHD =         272.0588     CHD             

           TOTAL OUT =      134961.8671             TOTAL OUT =         307.4259

            IN - OUT =          -0.8444              IN - OUT =      -9.5541E-03

 PERCENT DISCREPANCY =          -0.00     PERCENT DISCREPANCY =          -0.00




         TIME SUMMARY AT END OF TIME STEP    2 IN STRESS PERIOD   25
                    SECONDS     MINUTES      HOURS       DAYS        YEARS
                    -----------------------------------------------------------
   TIME STEP LENGTH 2.59200E+05  4320.0      72.000      3.0000     8.21355E-03
 STRESS PERIOD TIME 5.18400E+05  8640.0      144.00      6.0000     1.64271E-02
         TOTAL TIME 6.02208E+07 1.00368E+06  16728.      697.00      1.9083    
 UBDSV1 SAVING           STO-SS ON UNIT   1016 AT TIME STEP      3, STRESS PERIOD     25
 UBDSV1 SAVING           STO-SY ON UNIT   1016 AT TIME STEP      3, STRESS PERIOD     25
 UBDSV1 SAVING     FLOW-JA-FACE ON UNIT   1016 AT TIME STEP      3, STRESS PERIOD     25
 UBDSV06 SAVING              RCH IN MODEL TEST_TRANS       PACKAGE TEST_TRANS      CONNECTED TO MODEL TEST_TRANS       PACKAGE RCHA             ON UNIT   1016 AT TIME STEP      3, STRESS PERIOD     25
 UBDSV06 SAVING              CHD IN MODEL TEST_TRANS       PACKAGE TEST_TRANS      CONNECTED TO MODEL TEST_TRANS       PACKAGE CHD              ON UNIT   1016 AT TIME STEP      3, STRESS PERIOD     25

 HEAD WILL BE SAVED ON UNIT 1017 AT END OF TIME STEP    3, STRESS PERIOD   25


  VOLUME BUDGET FOR ENTIRE MODEL AT END OF TIME STEP    3, STRESS PERIOD  25
  ---------------------------------------------------------------------------------------------------

     CUMULATIVE VOLUME      L**3       RATES FOR THIS TIME STEP      L**3/T          PACKAGE NAME    
     ------------------                 ------------------------                     ----------------

           IN:                                      IN:
           ---                                      ---
              STO-SS =          32.9343                STO-SS =       6.8550E-02     STORAGE         
              STO-SY =       20997.5069                STO-SY =          48.2088     STORAGE         
                 RCH =      114649.3639                   RCH =         238.3565     RCHA            
                 CHD =         141.1190                   CHD =           0.0000     CHD             

            TOTAL IN =      135820.9242              TOTAL IN =         286.6338

          OUT:                                     OUT:
          ----                                     ----
              STO-SS =          26.6685                STO-SS =       5.3049E-02     STORAGE         
              STO-SY =       17176.3204                STO-SY =          32.5739     STORAGE         
                 RCH =           0.0000                   RCH =           0.0000     RCHA            
                 CHD =      118618.7964                   CHD =         254.0124     CHD             

           TOTAL OUT =      135821.7853             TOTAL OUT =         286.6394

            IN - OUT =          -0.8611              IN - OUT =      -5.5704E-03

 PERCENT DISCREPANCY =          -0.00     PERCENT DISCREPANCY =          -0.00




         TIME SUMMARY AT END OF TIME STEP    3 IN STRESS PERIOD   25
                    SECONDS     MINUTES      HOURS       DAYS        YEARS
                    -----------------------------------------------------------
   TIME STEP LENGTH 2.59200E+05  4320.0      72.000      3.0000     8.21355E-03
 STRESS PERIOD TIME 7.77600E+05  12960.      216.00      9.0000     2.46407E-02
         TOTAL TIME 6.04800E+07 1.00800E+06  16800.      700.00      1.9165    
 UBDSV1 SAVING           STO-SS ON UNIT   1016 AT TIME STEP      4, STRESS PERIOD     25
 UBDSV1 SAVING           STO-SY ON UNIT   1016 AT TIME STEP      4, STRESS PERIOD     25
 UBDSV1 SAVING     FLOW-JA-FACE ON UNIT   1016 AT TIME STEP      4, STRESS PERIOD     25
 UBDSV06 SAVING              RCH IN MODEL TEST_TRANS       PACKAGE TEST_TRANS      CONNECTED TO MODEL TEST_TRANS       PACKAGE RCHA             ON UNIT   1016 AT TIME STEP      4, STRESS PERIOD     25
 UBDSV06 SAVING              CHD IN MODEL TEST_TRANS       PACKAGE TEST_TRANS      CONNECTED TO MODEL TEST_TRANS       PACKAGE CHD              ON UNIT   1016 AT TIME STEP      4, STRESS PERIOD     25

 HEAD WILL BE SAVED ON UNIT 1017 AT END OF TIME STEP    4, STRESS PERIOD   25


  VOLUME BUDGET FOR ENTIRE MODEL AT END OF TIME STEP    4, STRESS PERIOD  25
  ---------------------------------------------------------------------------------------------------

     CUMULATIVE VOLUME      L**3       RATES FOR THIS TIME STEP      L**3/T          PACKAGE NAME    
     ------------------                 ------------------------                     ----------------

           IN:                                      IN:
           ---                                      ---
              STO-SS =          33.0887                STO-SS =       5.1481E-02     STORAGE         
              STO-SY =       21105.3242                STO-SY =          35.9391     STORAGE         
                 RCH =      115364.4335                   RCH =         238.3565     RCHA            
                 CHD =         141.1190                   CHD =           0.0000     CHD             

            TOTAL IN =      136643.9654              TOTAL IN =         274.3471

          OUT:                                     OUT:
          ----                                     ----
              STO-SS =          26.8163                STO-SS =       4.9255E-02     STORAGE         
              STO-SY =       17266.8953                STO-SY =          30.1916     STORAGE         
                 RCH =           0.0000                   RCH =           0.0000     RCHA            
                 CHD =      119351.1235                   CHD =         244.1090     CHD             

           TOTAL OUT =      136644.8351             TOTAL OUT =         274.3499

            IN - OUT =          -0.8697              IN - OUT =      -2.8565E-03

 PERCENT DISCREPANCY =          -0.00     PERCENT DISCREPANCY =          -0.00




         TIME SUMMARY AT END OF TIME STEP    4 IN STRESS PERIOD   25
                    SECONDS     MINUTES      HOURS       DAYS        YEARS
                    -----------------------------------------------------------
   TIME STEP LENGTH 2.59200E+05  4320.0      72.000      3.0000     8.21355E-03
 STRESS PERIOD TIME 1.03680E+06  17280.      288.00      12.000     3.28542E-02
         TOTAL TIME 6.07392E+07 1.01232E+06  16872.      703.00      1.9247    
 UBDSV1 SAVING           STO-SS ON UNIT   1016 AT TIME STEP      5, STRESS PERIOD     25
 UBDSV1 SAVING           STO-SY ON UNIT   1016 AT TIME STEP      5, STRESS PERIOD     25
 UBDSV1 SAVING     FLOW-JA-FACE ON UNIT   1016 AT TIME STEP      5, STRESS PERIOD     25
 UBDSV06 SAVING              RCH IN MODEL TEST_TRANS       PACKAGE TEST_TRANS      CONNECTED TO MODEL TEST_TRANS       PACKAGE RCHA             ON UNIT   1016 AT TIME STEP      5, STRESS PERIOD     25
 UBDSV06 SAVING              CHD IN MODEL TEST_TRANS       PACKAGE TEST_TRANS      CONNECTED TO MODEL TEST_TRANS       PACKAGE CHD              ON UNIT   1016 AT TIME STEP      5, STRESS PERIOD     25

 HEAD WILL BE SAVED ON UNIT 1017 AT END OF TIME STEP    5, STRESS PERIOD   25


  VOLUME BUDGET FOR ENTIRE MODEL AT END OF TIME STEP    5, STRESS PERIOD  25
  ---------------------------------------------------------------------------------------------------

     CUMULATIVE VOLUME      L**3       RATES FOR THIS TIME STEP      L**3/T          PACKAGE NAME    
     ------------------                 ------------------------                     ----------------

           IN:                                      IN:
           ---                                      ---
              STO-SS =          33.2084                STO-SS =       3.9889E-02     STORAGE         
              STO-SY =       21188.4289                STO-SY =          27.7016     STORAGE         
                 RCH =      116079.5030                   RCH =         238.3565     RCHA            
                 CHD =         141.1190                   CHD =           0.0000     CHD             

            TOTAL IN =      137442.2593              TOTAL IN =         266.0980

          OUT:                                     OUT:
          ----                                     ----
              STO-SS =          26.9542                STO-SS =       4.5965E-02     STORAGE         
              STO-SY =       17351.3040                STO-SY =          28.1362     STORAGE         
                 RCH =           0.0000                   RCH =           0.0000     RCHA            
                 CHD =      120064.8758                   CHD =         237.9174     CHD             

           TOTAL OUT =      137443.1340             TOTAL OUT =         266.0996

            IN - OUT =          -0.8748              IN - OUT =      -1.6877E-03

 PERCENT DISCREPANCY =          -0.00     PERCENT DISCREPANCY =          -0.00




         TIME SUMMARY AT END OF TIME STEP    5 IN STRESS PERIOD   25
                    SECONDS     MINUTES      HOURS       DAYS        YEARS
                    -----------------------------------------------------------
   TIME STEP LENGTH 2.59200E+05  4320.0      72.000      3.0000     8.21355E-03
 STRESS PERIOD TIME 1.29600E+06  21600.      360.00      15.000     4.10678E-02
         TOTAL TIME 6.09984E+07 1.01664E+06  16944.      706.00      1.9329    
 UBDSV1 SAVING           STO-SS ON UNIT   1016 AT TIME STEP      6, STRESS PERIOD     25
 UBDSV1 SAVING           STO-SY ON UNIT   1016 AT TIME STEP      6, STRESS PERIOD     25
 UBDSV1 SAVING     FLOW-JA-FACE ON UNIT   1016 AT TIME STEP      6, STRESS PERIOD     25
 UBDSV06 SAVING              RCH IN MODEL TEST_TRANS       PACKAGE TEST_TRANS      CONNECTED TO MODEL TEST_TRANS       PACKAGE RCHA             ON UNIT   1016 AT TIME STEP      6, STRESS PERIOD     25
 UBDSV06 SAVING              CHD IN MODEL TEST_TRANS       PACKAGE TEST_TRANS      CONNECTED TO MODEL TEST_TRANS       PACKAGE CHD              ON UNIT   1016 AT TIME STEP      6, STRESS PERIOD     25

 HEAD WILL BE SAVED ON UNIT 1017 AT END OF TIME STEP    6, STRESS PERIOD   25


  VOLUME BUDGET FOR ENTIRE MODEL AT END OF TIME STEP    6, STRESS PERIOD  25
  ---------------------------------------------------------------------------------------------------

     CUMULATIVE VOLUME      L**3       RATES FOR THIS TIME STEP      L**3/T          PACKAGE NAME    
     ------------------                 ------------------------                     ----------------

           IN:                                      IN:
           ---                                      ---
              STO-SS =          33.3024                STO-SS =       3.1321E-02     STORAGE         
              STO-SY =       21253.4594                STO-SY =          21.6768     STORAGE         
                 RCH =      116794.5725                   RCH =         238.3565     RCHA            
                 CHD =         141.1190                   CHD =           0.0000     CHD             

            TOTAL IN =      138222.4533              TOTAL IN =         260.0647

          OUT:                                     OUT:
          ----                                     ----
              STO-SS =          27.0832                STO-SS =       4.3021E-02     STORAGE         
              STO-SY =       17430.2147                STO-SY =          26.3036     STORAGE         
                 RCH =           0.0000                   RCH =           0.0000     RCHA            
                 CHD =      120766.0072                   CHD =         233.7104     CHD             

           TOTAL OUT =      138223.3051             TOTAL OUT =         260.0570

            IN - OUT =          -0.8518              IN - OUT =       7.6590E-03

 PERCENT DISCREPANCY =          -0.00     PERCENT DISCREPANCY =           0.00




         TIME SUMMARY AT END OF TIME STEP    6 IN STRESS PERIOD   25
                    SECONDS     MINUTES      HOURS       DAYS        YEARS
                    -----------------------------------------------------------
   TIME STEP LENGTH 2.59200E+05  4320.0      72.000      3.0000     8.21355E-03
 STRESS PERIOD TIME 1.55520E+06  25920.      432.00      18.000     4.92813E-02
         TOTAL TIME 6.12576E+07 1.02096E+06  17016.      709.00      1.9411    
 UBDSV1 SAVING           STO-SS ON UNIT   1016 AT TIME STEP      7, STRESS PERIOD     25
 UBDSV1 SAVING           STO-SY ON UNIT   1016 AT TIME STEP      7, STRESS PERIOD     25
 UBDSV1 SAVING     FLOW-JA-FACE ON UNIT   1016 AT TIME STEP      7, STRESS PERIOD     25
 UBDSV06 SAVING              RCH IN MODEL TEST_TRANS       PACKAGE TEST_TRANS      CONNECTED TO MODEL TEST_TRANS       PACKAGE RCHA             ON UNIT   1016 AT TIME STEP      7, STRESS PERIOD     25
 UBDSV06 SAVING              CHD IN MODEL TEST_TRANS       PACKAGE TEST_TRANS      CONNECTED TO MODEL TEST_TRANS       PACKAGE CHD              ON UNIT   1016 AT TIME STEP      7, STRESS PERIOD     25

 HEAD WILL BE SAVED ON UNIT 1017 AT END OF TIME STEP    7, STRESS PERIOD   25


  VOLUME BUDGET FOR ENTIRE MODEL AT END OF TIME STEP    7, STRESS PERIOD  25
  ---------------------------------------------------------------------------------------------------

     CUMULATIVE VOLUME      L**3       RATES FOR THIS TIME STEP      L**3/T          PACKAGE NAME    
     ------------------                 ------------------------                     ----------------

           IN:                                      IN:
           ---                                      ---
              STO-SS =          33.3767                STO-SS =       2.4777E-02     STORAGE         
              STO-SY =       21304.7804                STO-SY =          17.1070     STORAGE         
                 RCH =      117509.6420                   RCH =         238.3565     RCHA            
                 CHD =         141.1190                   CHD =           0.0000     CHD             

            TOTAL IN =      138988.9182              TOTAL IN =         255.4883

          OUT:                                     OUT:
          ----                                     ----
              STO-SS =          27.2047                STO-SS =       4.0493E-02     STORAGE         
              STO-SY =       17504.4213                STO-SY =          24.7355     STORAGE         
                 RCH =           0.0000                   RCH =           0.0000     RCHA            
                 CHD =      121458.1255                   CHD =         230.7061     CHD             

           TOTAL OUT =      138989.7515             TOTAL OUT =         255.4821

            IN - OUT =          -0.8333              IN - OUT =       6.1587E-03

 PERCENT DISCREPANCY =          -0.00     PERCENT DISCREPANCY =           0.00




         TIME SUMMARY AT END OF TIME STEP    7 IN STRESS PERIOD   25
                    SECONDS     MINUTES      HOURS       DAYS        YEARS
                    -----------------------------------------------------------
   TIME STEP LENGTH 2.59200E+05  4320.0      72.000      3.0000     8.21355E-03
 STRESS PERIOD TIME 1.81440E+06  30240.      504.00      21.000     5.74949E-02
         TOTAL TIME 6.15168E+07 1.02528E+06  17088.      712.00      1.9493    
 UBDSV1 SAVING           STO-SS ON UNIT   1016 AT TIME STEP      8, STRESS PERIOD     25
 UBDSV1 SAVING           STO-SY ON UNIT   1016 AT TIME STEP      8, STRESS PERIOD     25
 UBDSV1 SAVING     FLOW-JA-FACE ON UNIT   1016 AT TIME STEP      8, STRESS PERIOD     25
 UBDSV06 SAVING              RCH IN MODEL TEST_TRANS       PACKAGE TEST_TRANS      CONNECTED TO MODEL TEST_TRANS       PACKAGE RCHA             ON UNIT   1016 AT TIME STEP      8, STRESS PERIOD     25
 UBDSV06 SAVING              CHD IN MODEL TEST_TRANS       PACKAGE TEST_TRANS      CONNECTED TO MODEL TEST_TRANS       PACKAGE CHD              ON UNIT   1016 AT TIME STEP      8, STRESS PERIOD     25

 HEAD WILL BE SAVED ON UNIT 1017 AT END OF TIME STEP    8, STRESS PERIOD   25


  VOLUME BUDGET FOR ENTIRE MODEL AT END OF TIME STEP    8, STRESS PERIOD  25
  ---------------------------------------------------------------------------------------------------

     CUMULATIVE VOLUME      L**3       RATES FOR THIS TIME STEP      L**3/T          PACKAGE NAME    
     ------------------                 ------------------------                     ----------------

           IN:                                      IN:
           ---                                      ---
              STO-SS =          33.4355                STO-SS =       1.9591E-02     STORAGE         
              STO-SY =       21345.3078                STO-SY =          13.5091     STORAGE         
                 RCH =      118224.7116                   RCH =         238.3565     RCHA            
                 CHD =         141.1190                   CHD =           0.0000     CHD             

            TOTAL IN =      139744.5739              TOTAL IN =         251.8852

          OUT:                                     OUT:
          ----                                     ----
              STO-SS =          27.3195                STO-SS =       3.8268E-02     STORAGE         
              STO-SY =       17574.4999                STO-SY =          23.3595     STORAGE         
                 RCH =           0.0000                   RCH =           0.0000     RCHA            
                 CHD =      122143.5731                   CHD =         228.4825     CHD             

           TOTAL OUT =      139745.3925             TOTAL OUT =         251.8803

            IN - OUT =          -0.8186              IN - OUT =       4.8898E-03

 PERCENT DISCREPANCY =          -0.00     PERCENT DISCREPANCY =           0.00




         TIME SUMMARY AT END OF TIME STEP    8 IN STRESS PERIOD   25
                    SECONDS     MINUTES      HOURS       DAYS        YEARS
                    -----------------------------------------------------------
   TIME STEP LENGTH 2.59200E+05  4320.0      72.000      3.0000     8.21355E-03
 STRESS PERIOD TIME 2.07360E+06  34560.      576.00      24.000     6.57084E-02
         TOTAL TIME 6.17760E+07 1.02960E+06  17160.      715.00      1.9576    
 UBDSV1 SAVING           STO-SS ON UNIT   1016 AT TIME STEP      9, STRESS PERIOD     25
 UBDSV1 SAVING           STO-SY ON UNIT   1016 AT TIME STEP      9, STRESS PERIOD     25
 UBDSV1 SAVING     FLOW-JA-FACE ON UNIT   1016 AT TIME STEP      9, STRESS PERIOD     25
 UBDSV06 SAVING              RCH IN MODEL TEST_TRANS       PACKAGE TEST_TRANS      CONNECTED TO MODEL TEST_TRANS       PACKAGE RCHA             ON UNIT   1016 AT TIME STEP      9, STRESS PERIOD     25
 UBDSV06 SAVING              CHD IN MODEL TEST_TRANS       PACKAGE TEST_TRANS      CONNECTED TO MODEL TEST_TRANS       PACKAGE CHD              ON UNIT   1016 AT TIME STEP      9, STRESS PERIOD     25

 HEAD WILL BE SAVED ON UNIT 1017 AT END OF TIME STEP    9, STRESS PERIOD   25


  VOLUME BUDGET FOR ENTIRE MODEL AT END OF TIME STEP    9, STRESS PERIOD  25
  ---------------------------------------------------------------------------------------------------

     CUMULATIVE VOLUME      L**3       RATES FOR THIS TIME STEP      L**3/T          PACKAGE NAME    
     ------------------                 ------------------------                     ----------------

           IN:                                      IN:
           ---                                      ---
              STO-SS =          33.4817                STO-SS =       1.5403E-02     STORAGE         
              STO-SY =       21377.1595                STO-SY =          10.6172     STORAGE         
                 RCH =      118939.7811                   RCH =         238.3565     RCHA            
                 CHD =         141.1190                   CHD =           0.0000     CHD             

            TOTAL IN =      140491.5413              TOTAL IN =         248.9891

          OUT:                                     OUT:
          ----                                     ----
              STO-SS =          27.4284                STO-SS =       3.6305E-02     STORAGE         
              STO-SY =       17640.9474                STO-SY =          22.1492     STORAGE         
                 RCH =           0.0000                   RCH =           0.0000     RCHA            
                 CHD =      122823.9664                   CHD =         226.7978     CHD             

           TOTAL OUT =      140492.3422             TOTAL OUT =         248.9832

            IN - OUT =          -0.8010              IN - OUT =       5.8934E-03

 PERCENT DISCREPANCY =          -0.00     PERCENT DISCREPANCY =           0.00




         TIME SUMMARY AT END OF TIME STEP    9 IN STRESS PERIOD   25
                    SECONDS     MINUTES      HOURS       DAYS        YEARS
                    -----------------------------------------------------------
   TIME STEP LENGTH 2.59200E+05  4320.0      72.000      3.0000     8.21355E-03
 STRESS PERIOD TIME 2.33280E+06  38880.      648.00      27.000     7.39220E-02
         TOTAL TIME 6.20352E+07 1.03392E+06  17232.      718.00      1.9658    
 UBDSV1 SAVING           STO-SS ON UNIT   1016 AT TIME STEP     10, STRESS PERIOD     25
 UBDSV1 SAVING           STO-SY ON UNIT   1016 AT TIME STEP     10, STRESS PERIOD     25
 UBDSV1 SAVING     FLOW-JA-FACE ON UNIT   1016 AT TIME STEP     10, STRESS PERIOD     25
 UBDSV06 SAVING              RCH IN MODEL TEST_TRANS       PACKAGE TEST_TRANS      CONNECTED TO MODEL TEST_TRANS       PACKAGE RCHA             ON UNIT   1016 AT TIME STEP     10, STRESS PERIOD     25
 UBDSV06 SAVING              CHD IN MODEL TEST_TRANS       PACKAGE TEST_TRANS      CONNECTED TO MODEL TEST_TRANS       PACKAGE CHD              ON UNIT   1016 AT TIME STEP     10, STRESS PERIOD     25

 HEAD WILL BE SAVED ON UNIT 1017 AT END OF TIME STEP   10, STRESS PERIOD   25


  VOLUME BUDGET FOR ENTIRE MODEL AT END OF TIME STEP   10, STRESS PERIOD  25
  ---------------------------------------------------------------------------------------------------

     CUMULATIVE VOLUME      L**3       RATES FOR THIS TIME STEP      L**3/T          PACKAGE NAME    
     ------------------                 ------------------------                     ----------------

           IN:                                      IN:
           ---                                      ---
              STO-SS =          33.5178                STO-SS =       1.2029E-02     STORAGE         
              STO-SY =       21402.0400                STO-SY =           8.2935     STORAGE         
                 RCH =      119654.8506                   RCH =         238.3565     RCHA            
                 CHD =         141.1190                   CHD =           0.0000     CHD             

            TOTAL IN =      141231.5274              TOTAL IN =         246.6621

          OUT:                                     OUT:
          ----                                     ----
              STO-SS =          27.5323                STO-SS =       3.4631E-02     STORAGE         
              STO-SY =       17704.3075                STO-SY =          21.1200     STORAGE         
                 RCH =           0.0000                   RCH =           0.0000     RCHA            
                 CHD =      123500.4752                   CHD =         225.5029     CHD             

           TOTAL OUT =      141232.3150             TOTAL OUT =         246.6576

            IN - OUT =          -0.7876              IN - OUT =       4.4678E-03

 PERCENT DISCREPANCY =          -0.00     PERCENT DISCREPANCY =           0.00




         TIME SUMMARY AT END OF TIME STEP   10 IN STRESS PERIOD   25
                    SECONDS     MINUTES      HOURS       DAYS        YEARS
                    -----------------------------------------------------------
   TIME STEP LENGTH 2.59200E+05  4320.0      72.000      3.0000     8.21355E-03
 STRESS PERIOD TIME 2.59200E+06  43200.      720.00      30.000     8.21355E-02
         TOTAL TIME 6.22944E+07 1.03824E+06  17304.      721.00      1.9740    

 OUTPUT CONTROL FOR STRESS PERIOD 26 IS REPEATED USING SETTINGS FROM A PREVIOUS STRESS PERIOD.


 STRESS PERIOD 26 IS TRANSIENT


                 RECHARGE =  0.3287670E-02
 UBDSV1 SAVING           STO-SS ON UNIT   1016 AT TIME STEP      1, STRESS PERIOD     26
 UBDSV1 SAVING           STO-SY ON UNIT   1016 AT TIME STEP      1, STRESS PERIOD     26
 UBDSV1 SAVING     FLOW-JA-FACE ON UNIT   1016 AT TIME STEP      1, STRESS PERIOD     26
 UBDSV06 SAVING              RCH IN MODEL TEST_TRANS       PACKAGE TEST_TRANS      CONNECTED TO MODEL TEST_TRANS       PACKAGE RCHA             ON UNIT   1016 AT TIME STEP      1, STRESS PERIOD     26
 UBDSV06 SAVING              CHD IN MODEL TEST_TRANS       PACKAGE TEST_TRANS      CONNECTED TO MODEL TEST_TRANS       PACKAGE CHD              ON UNIT   1016 AT TIME STEP      1, STRESS PERIOD     26

 HEAD WILL BE SAVED ON UNIT 1017 AT END OF TIME STEP    1, STRESS PERIOD   26


  VOLUME BUDGET FOR ENTIRE MODEL AT END OF TIME STEP    1, STRESS PERIOD  26
  ---------------------------------------------------------------------------------------------------

     CUMULATIVE VOLUME      L**3       RATES FOR THIS TIME STEP      L**3/T          PACKAGE NAME    
     ------------------                 ------------------------                     ----------------

           IN:                                      IN:
           ---                                      ---
              STO-SS =          33.5178                STO-SS =           0.0000     STORAGE         
              STO-SY =       21402.0400                STO-SY =           0.0000     STORAGE         
                 RCH =      120512.9325                   RCH =         286.0273     RCHA            
                 CHD =         141.1190                   CHD =           0.0000     CHD             

            TOTAL IN =      142089.6093              TOTAL IN =         286.0273

          OUT:                                     OUT:
          ----                                     ----
              STO-SS =          27.8816                STO-SS =           0.1164     STORAGE         
              STO-SY =       17928.1812                STO-SY =          74.6246     STORAGE         
                 RCH =           0.0000                   RCH =           0.0000     RCHA            
                 CHD =      124134.3245                   CHD =         211.2831     CHD             

           TOTAL OUT =      142090.3872             TOTAL OUT =         286.0241

            IN - OUT =          -0.7779              IN - OUT =       3.2135E-03

 PERCENT DISCREPANCY =          -0.00     PERCENT DISCREPANCY =           0.00




         TIME SUMMARY AT END OF TIME STEP    1 IN STRESS PERIOD   26
                    SECONDS     MINUTES      HOURS       DAYS        YEARS
                    -----------------------------------------------------------
   TIME STEP LENGTH 2.59200E+05  4320.0      72.000      3.0000     8.21355E-03
 STRESS PERIOD TIME 2.59200E+05  4320.0      72.000      3.0000     8.21355E-03
         TOTAL TIME 6.25536E+07 1.04256E+06  17376.      724.00      1.9822    
 UBDSV1 SAVING           STO-SS ON UNIT   1016 AT TIME STEP      2, STRESS PERIOD     26
 UBDSV1 SAVING           STO-SY ON UNIT   1016 AT TIME STEP      2, STRESS PERIOD     26
 UBDSV1 SAVING     FLOW-JA-FACE ON UNIT   1016 AT TIME STEP      2, STRESS PERIOD     26
 UBDSV06 SAVING              RCH IN MODEL TEST_TRANS       PACKAGE TEST_TRANS      CONNECTED TO MODEL TEST_TRANS       PACKAGE RCHA             ON UNIT   1016 AT TIME STEP      2, STRESS PERIOD     26
 UBDSV06 SAVING              CHD IN MODEL TEST_TRANS       PACKAGE TEST_TRANS      CONNECTED TO MODEL TEST_TRANS       PACKAGE CHD              ON UNIT   1016 AT TIME STEP      2, STRESS PERIOD     26

 HEAD WILL BE SAVED ON UNIT 1017 AT END OF TIME STEP    2, STRESS PERIOD   26


  VOLUME BUDGET FOR ENTIRE MODEL AT END OF TIME STEP    2, STRESS PERIOD  26
  ---------------------------------------------------------------------------------------------------

     CUMULATIVE VOLUME      L**3       RATES FOR THIS TIME STEP      L**3/T          PACKAGE NAME    
     ------------------                 ------------------------                     ----------------

           IN:                                      IN:
           ---                                      ---
              STO-SS =          33.5178                STO-SS =           0.0000     STORAGE         
              STO-SY =       21402.0400                STO-SY =           0.0000     STORAGE         
                 RCH =      121371.0144                   RCH =         286.0273     RCHA            
                 CHD =         141.1190                   CHD =           0.0000     CHD             

            TOTAL IN =      142947.6912              TOTAL IN =         286.0273

          OUT:                                     OUT:
          ----                                     ----
              STO-SS =          28.2058                STO-SS =           0.1081     STORAGE         
              STO-SY =       18133.2761                STO-SY =          68.3650     STORAGE         
                 RCH =           0.0000                   RCH =           0.0000     RCHA            
                 CHD =      124786.9894                   CHD =         217.5550     CHD             

           TOTAL OUT =      142948.4713             TOTAL OUT =         286.0280

            IN - OUT =          -0.7802              IN - OUT =      -7.4599E-04

 PERCENT DISCREPANCY =          -0.00     PERCENT DISCREPANCY =          -0.00




         TIME SUMMARY AT END OF TIME STEP    2 IN STRESS PERIOD   26
                    SECONDS     MINUTES      HOURS       DAYS        YEARS
                    -----------------------------------------------------------
   TIME STEP LENGTH 2.59200E+05  4320.0      72.000      3.0000     8.21355E-03
 STRESS PERIOD TIME 5.18400E+05  8640.0      144.00      6.0000     1.64271E-02
         TOTAL TIME 6.28128E+07 1.04688E+06  17448.      727.00      1.9904    
 UBDSV1 SAVING           STO-SS ON UNIT   1016 AT TIME STEP      3, STRESS PERIOD     26
 UBDSV1 SAVING           STO-SY ON UNIT   1016 AT TIME STEP      3, STRESS PERIOD     26
 UBDSV1 SAVING     FLOW-JA-FACE ON UNIT   1016 AT TIME STEP      3, STRESS PERIOD     26
 UBDSV06 SAVING              RCH IN MODEL TEST_TRANS       PACKAGE TEST_TRANS      CONNECTED TO MODEL TEST_TRANS       PACKAGE RCHA             ON UNIT   1016 AT TIME STEP      3, STRESS PERIOD     26
 UBDSV06 SAVING              CHD IN MODEL TEST_TRANS       PACKAGE TEST_TRANS      CONNECTED TO MODEL TEST_TRANS       PACKAGE CHD              ON UNIT   1016 AT TIME STEP      3, STRESS PERIOD     26

 HEAD WILL BE SAVED ON UNIT 1017 AT END OF TIME STEP    3, STRESS PERIOD   26


  VOLUME BUDGET FOR ENTIRE MODEL AT END OF TIME STEP    3, STRESS PERIOD  26
  ---------------------------------------------------------------------------------------------------

     CUMULATIVE VOLUME      L**3       RATES FOR THIS TIME STEP      L**3/T          PACKAGE NAME    
     ------------------                 ------------------------                     ----------------

           IN:                                      IN:
           ---                                      ---
              STO-SS =          33.5178                STO-SS =           0.0000     STORAGE         
              STO-SY =       21402.0400                STO-SY =           0.0000     STORAGE         
                 RCH =      122229.0962                   RCH =         286.0273     RCHA            
                 CHD =         141.1190                   CHD =           0.0000     CHD             

            TOTAL IN =      143805.7730              TOTAL IN =         286.0273

          OUT:                                     OUT:
          ----                                     ----
              STO-SS =          28.5172                STO-SS =           0.1038     STORAGE         
              STO-SY =       18329.0439                STO-SY =          65.2559     STORAGE         
                 RCH =           0.0000                   RCH =           0.0000     RCHA            
                 CHD =      125449.0033                   CHD =         220.6713     CHD             

           TOTAL OUT =      143806.5644             TOTAL OUT =         286.0310

            IN - OUT =          -0.7914              IN - OUT =      -3.7427E-03

 PERCENT DISCREPANCY =          -0.00     PERCENT DISCREPANCY =          -0.00




         TIME SUMMARY AT END OF TIME STEP    3 IN STRESS PERIOD   26
                    SECONDS     MINUTES      HOURS       DAYS        YEARS
                    -----------------------------------------------------------
   TIME STEP LENGTH 2.59200E+05  4320.0      72.000      3.0000     8.21355E-03
 STRESS PERIOD TIME 7.77600E+05  12960.      216.00      9.0000     2.46407E-02
         TOTAL TIME 6.30720E+07 1.05120E+06  17520.      730.00      1.9986    
 UBDSV1 SAVING           STO-SS ON UNIT   1016 AT TIME STEP      4, STRESS PERIOD     26
 UBDSV1 SAVING           STO-SY ON UNIT   1016 AT TIME STEP      4, STRESS PERIOD     26
 UBDSV1 SAVING     FLOW-JA-FACE ON UNIT   1016 AT TIME STEP      4, STRESS PERIOD     26
 UBDSV06 SAVING              RCH IN MODEL TEST_TRANS       PACKAGE TEST_TRANS      CONNECTED TO MODEL TEST_TRANS       PACKAGE RCHA             ON UNIT   1016 AT TIME STEP      4, STRESS PERIOD     26
 UBDSV06 SAVING              CHD IN MODEL TEST_TRANS       PACKAGE TEST_TRANS      CONNECTED TO MODEL TEST_TRANS       PACKAGE CHD              ON UNIT   1016 AT TIME STEP      4, STRESS PERIOD     26

 HEAD WILL BE SAVED ON UNIT 1017 AT END OF TIME STEP    4, STRESS PERIOD   26


  VOLUME BUDGET FOR ENTIRE MODEL AT END OF TIME STEP    4, STRESS PERIOD  26
  ---------------------------------------------------------------------------------------------------

     CUMULATIVE VOLUME      L**3       RATES FOR THIS TIME STEP      L**3/T          PACKAGE NAME    
     ------------------                 ------------------------                     ----------------

           IN:                                      IN:
           ---                                      ---
              STO-SS =          33.5178                STO-SS =           0.0000     STORAGE         
              STO-SY =       21402.0400                STO-SY =           0.0000     STORAGE         
                 RCH =      123087.1781                   RCH =         286.0273     RCHA            
                 CHD =         141.1190                   CHD =           0.0000     CHD             

            TOTAL IN =      144663.8549              TOTAL IN =         286.0273

          OUT:                                     OUT:
          ----                                     ----
              STO-SS =          28.8199                STO-SS =           0.1009     STORAGE         
              STO-SY =       18518.7959                STO-SY =          63.2507     STORAGE         
                 RCH =           0.0000                   RCH =           0.0000     RCHA            
                 CHD =      126117.0547                   CHD =         222.6838     CHD             

           TOTAL OUT =      144664.6705             TOTAL OUT =         286.0354

            IN - OUT =          -0.8156              IN - OUT =      -8.0742E-03

 PERCENT DISCREPANCY =          -0.00     PERCENT DISCREPANCY =          -0.00




         TIME SUMMARY AT END OF TIME STEP    4 IN STRESS PERIOD   26
                    SECONDS     MINUTES      HOURS       DAYS        YEARS
                    -----------------------------------------------------------
   TIME STEP LENGTH 2.59200E+05  4320.0      72.000      3.0000     8.21355E-03
 STRESS PERIOD TIME 1.03680E+06  17280.      288.00      12.000     3.28542E-02
         TOTAL TIME 6.33312E+07 1.05552E+06  17592.      733.00      2.0068    
 UBDSV1 SAVING           STO-SS ON UNIT   1016 AT TIME STEP      5, STRESS PERIOD     26
 UBDSV1 SAVING           STO-SY ON UNIT   1016 AT TIME STEP      5, STRESS PERIOD     26
 UBDSV1 SAVING     FLOW-JA-FACE ON UNIT   1016 AT TIME STEP      5, STRESS PERIOD     26
 UBDSV06 SAVING              RCH IN MODEL TEST_TRANS       PACKAGE TEST_TRANS      CONNECTED TO MODEL TEST_TRANS       PACKAGE RCHA             ON UNIT   1016 AT TIME STEP      5, STRESS PERIOD     26
 UBDSV06 SAVING              CHD IN MODEL TEST_TRANS       PACKAGE TEST_TRANS      CONNECTED TO MODEL TEST_TRANS       PACKAGE CHD              ON UNIT   1016 AT TIME STEP      5, STRESS PERIOD     26

 HEAD WILL BE SAVED ON UNIT 1017 AT END OF TIME STEP    5, STRESS PERIOD   26


  VOLUME BUDGET FOR ENTIRE MODEL AT END OF TIME STEP    5, STRESS PERIOD  26
  ---------------------------------------------------------------------------------------------------

     CUMULATIVE VOLUME      L**3       RATES FOR THIS TIME STEP      L**3/T          PACKAGE NAME    
     ------------------                 ------------------------                     ----------------

           IN:                                      IN:
           ---                                      ---
              STO-SS =          33.5178                STO-SS =           0.0000     STORAGE         
              STO-SY =       21402.0400                STO-SY =           0.0000     STORAGE         
                 RCH =      123945.2600                   RCH =         286.0273     RCHA            
                 CHD =         141.1190                   CHD =           0.0000     CHD             

            TOTAL IN =      145521.9368              TOTAL IN =         286.0273

          OUT:                                     OUT:
          ----                                     ----
              STO-SS =          29.1160                STO-SS =       9.8687E-02     STORAGE         
              STO-SY =       18703.9435                STO-SY =          61.7159     STORAGE         
                 RCH =           0.0000                   RCH =           0.0000     RCHA            
                 CHD =      126789.7156                   CHD =         224.2203     CHD             

           TOTAL OUT =      145522.7751             TOTAL OUT =         286.0349

            IN - OUT =          -0.8383              IN - OUT =      -7.5772E-03

 PERCENT DISCREPANCY =          -0.00     PERCENT DISCREPANCY =          -0.00




         TIME SUMMARY AT END OF TIME STEP    5 IN STRESS PERIOD   26
                    SECONDS     MINUTES      HOURS       DAYS        YEARS
                    -----------------------------------------------------------
   TIME STEP LENGTH 2.59200E+05  4320.0      72.000      3.0000     8.21355E-03
 STRESS PERIOD TIME 1.29600E+06  21600.      360.00      15.000     4.10678E-02
         TOTAL TIME 6.35904E+07 1.05984E+06  17664.      736.00      2.0151    
 UBDSV1 SAVING           STO-SS ON UNIT   1016 AT TIME STEP      6, STRESS PERIOD     26
 UBDSV1 SAVING           STO-SY ON UNIT   1016 AT TIME STEP      6, STRESS PERIOD     26
 UBDSV1 SAVING     FLOW-JA-FACE ON UNIT   1016 AT TIME STEP      6, STRESS PERIOD     26
 UBDSV06 SAVING              RCH IN MODEL TEST_TRANS       PACKAGE TEST_TRANS      CONNECTED TO MODEL TEST_TRANS       PACKAGE RCHA             ON UNIT   1016 AT TIME STEP      6, STRESS PERIOD     26
 UBDSV06 SAVING              CHD IN MODEL TEST_TRANS       PACKAGE TEST_TRANS      CONNECTED TO MODEL TEST_TRANS       PACKAGE CHD              ON UNIT   1016 AT TIME STEP      6, STRESS PERIOD     26

 HEAD WILL BE SAVED ON UNIT 1017 AT END OF TIME STEP    6, STRESS PERIOD   26


  VOLUME BUDGET FOR ENTIRE MODEL AT END OF TIME STEP    6, STRESS PERIOD  26
  ---------------------------------------------------------------------------------------------------

     CUMULATIVE VOLUME      L**3       RATES FOR THIS TIME STEP      L**3/T          PACKAGE NAME    
     ------------------                 ------------------------                     ----------------

           IN:                                      IN:
           ---                                      ---
              STO-SS =          33.5178                STO-SS =           0.0000     STORAGE         
              STO-SY =       21402.0400                STO-SY =           0.0000     STORAGE         
                 RCH =      124803.3419                   RCH =         286.0273     RCHA            
                 CHD =         141.1190                   CHD =           0.0000     CHD             

            TOTAL IN =      146380.0187              TOTAL IN =         286.0273

          OUT:                                     OUT:
          ----                                     ----
              STO-SS =          29.4063                STO-SS =       9.6758E-02     STORAGE         
              STO-SY =       18885.2033                STO-SY =          60.4199     STORAGE         
                 RCH =           0.0000                   RCH =           0.0000     RCHA            
                 CHD =      127466.2690                   CHD =         225.5178     CHD             

           TOTAL OUT =      146380.8786             TOTAL OUT =         286.0345

            IN - OUT =          -0.8600              IN - OUT =      -7.2099E-03

 PERCENT DISCREPANCY =          -0.00     PERCENT DISCREPANCY =          -0.00




         TIME SUMMARY AT END OF TIME STEP    6 IN STRESS PERIOD   26
                    SECONDS     MINUTES      HOURS       DAYS        YEARS
                    -----------------------------------------------------------
   TIME STEP LENGTH 2.59200E+05  4320.0      72.000      3.0000     8.21355E-03
 STRESS PERIOD TIME 1.55520E+06  25920.      432.00      18.000     4.92813E-02
         TOTAL TIME 6.38496E+07 1.06416E+06  17736.      739.00      2.0233    
 UBDSV1 SAVING           STO-SS ON UNIT   1016 AT TIME STEP      7, STRESS PERIOD     26
 UBDSV1 SAVING           STO-SY ON UNIT   1016 AT TIME STEP      7, STRESS PERIOD     26
 UBDSV1 SAVING     FLOW-JA-FACE ON UNIT   1016 AT TIME STEP      7, STRESS PERIOD     26
 UBDSV06 SAVING              RCH IN MODEL TEST_TRANS       PACKAGE TEST_TRANS      CONNECTED TO MODEL TEST_TRANS       PACKAGE RCHA             ON UNIT   1016 AT TIME STEP      7, STRESS PERIOD     26
 UBDSV06 SAVING              CHD IN MODEL TEST_TRANS       PACKAGE TEST_TRANS      CONNECTED TO MODEL TEST_TRANS       PACKAGE CHD              ON UNIT   1016 AT TIME STEP      7, STRESS PERIOD     26

 HEAD WILL BE SAVED ON UNIT 1017 AT END OF TIME STEP    7, STRESS PERIOD   26


  VOLUME BUDGET FOR ENTIRE MODEL AT END OF TIME STEP    7, STRESS PERIOD  26
  ---------------------------------------------------------------------------------------------------

     CUMULATIVE VOLUME      L**3       RATES FOR THIS TIME STEP      L**3/T          PACKAGE NAME    
     ------------------                 ------------------------                     ----------------

           IN:                                      IN:
           ---                                      ---
              STO-SS =          33.5178                STO-SS =           0.0000     STORAGE         
              STO-SY =       21402.0400                STO-SY =           0.0000     STORAGE         
                 RCH =      125661.4237                   RCH =         286.0273     RCHA            
                 CHD =         141.1190                   CHD =           0.0000     CHD             

            TOTAL IN =      147238.1005              TOTAL IN =         286.0273

          OUT:                                     OUT:
          ----                                     ----
              STO-SS =          29.6913                STO-SS =       9.5006E-02     STORAGE         
              STO-SY =       19062.9780                STO-SY =          59.2582     STORAGE         
                 RCH =           0.0000                   RCH =           0.0000     RCHA            
                 CHD =      128146.3120                   CHD =         226.6810     CHD             

           TOTAL OUT =      147238.9813             TOTAL OUT =         286.0342

            IN - OUT =          -0.8808              IN - OUT =      -6.9488E-03

 PERCENT DISCREPANCY =          -0.00     PERCENT DISCREPANCY =          -0.00




         TIME SUMMARY AT END OF TIME STEP    7 IN STRESS PERIOD   26
                    SECONDS     MINUTES      HOURS       DAYS        YEARS
                    -----------------------------------------------------------
   TIME STEP LENGTH 2.59200E+05  4320.0      72.000      3.0000     8.21355E-03
 STRESS PERIOD TIME 1.81440E+06  30240.      504.00      21.000     5.74949E-02
         TOTAL TIME 6.41088E+07 1.06848E+06  17808.      742.00      2.0315    
 UBDSV1 SAVING           STO-SS ON UNIT   1016 AT TIME STEP      8, STRESS PERIOD     26
 UBDSV1 SAVING           STO-SY ON UNIT   1016 AT TIME STEP      8, STRESS PERIOD     26
 UBDSV1 SAVING     FLOW-JA-FACE ON UNIT   1016 AT TIME STEP      8, STRESS PERIOD     26
 UBDSV06 SAVING              RCH IN MODEL TEST_TRANS       PACKAGE TEST_TRANS      CONNECTED TO MODEL TEST_TRANS       PACKAGE RCHA             ON UNIT   1016 AT TIME STEP      8, STRESS PERIOD     26
 UBDSV06 SAVING              CHD IN MODEL TEST_TRANS       PACKAGE TEST_TRANS      CONNECTED TO MODEL TEST_TRANS       PACKAGE CHD              ON UNIT   1016 AT TIME STEP      8, STRESS PERIOD     26

 HEAD WILL BE SAVED ON UNIT 1017 AT END OF TIME STEP    8, STRESS PERIOD   26


  VOLUME BUDGET FOR ENTIRE MODEL AT END OF TIME STEP    8, STRESS PERIOD  26
  ---------------------------------------------------------------------------------------------------

     CUMULATIVE VOLUME      L**3       RATES FOR THIS TIME STEP      L**3/T          PACKAGE NAME    
     ------------------                 ------------------------                     ----------------

           IN:                                      IN:
           ---                                      ---
              STO-SS =          33.5178                STO-SS =           0.0000     STORAGE         
              STO-SY =       21402.0400                STO-SY =           0.0000     STORAGE         
                 RCH =      126519.5056                   RCH =         286.0273     RCHA            
                 CHD =         141.1190                   CHD =           0.0000     CHD             

            TOTAL IN =      148096.1824              TOTAL IN =         286.0273

          OUT:                                     OUT:
          ----                                     ----
              STO-SS =          29.9714                STO-SS =       9.3363E-02     STORAGE         
              STO-SY =       19237.5143                STO-SY =          58.1788     STORAGE         
                 RCH =           0.0000                   RCH =           0.0000     RCHA            
                 CHD =      128829.5978                   CHD =         227.7619     CHD             

           TOTAL OUT =      148097.0835             TOTAL OUT =         286.0341

            IN - OUT =          -0.9011              IN - OUT =      -6.7621E-03

 PERCENT DISCREPANCY =          -0.00     PERCENT DISCREPANCY =          -0.00




         TIME SUMMARY AT END OF TIME STEP    8 IN STRESS PERIOD   26
                    SECONDS     MINUTES      HOURS       DAYS        YEARS
                    -----------------------------------------------------------
   TIME STEP LENGTH 2.59200E+05  4320.0      72.000      3.0000     8.21355E-03
 STRESS PERIOD TIME 2.07360E+06  34560.      576.00      24.000     6.57084E-02
         TOTAL TIME 6.43680E+07 1.07280E+06  17880.      745.00      2.0397    
 UBDSV1 SAVING           STO-SS ON UNIT   1016 AT TIME STEP      9, STRESS PERIOD     26
 UBDSV1 SAVING           STO-SY ON UNIT   1016 AT TIME STEP      9, STRESS PERIOD     26
 UBDSV1 SAVING     FLOW-JA-FACE ON UNIT   1016 AT TIME STEP      9, STRESS PERIOD     26
 UBDSV06 SAVING              RCH IN MODEL TEST_TRANS       PACKAGE TEST_TRANS      CONNECTED TO MODEL TEST_TRANS       PACKAGE RCHA             ON UNIT   1016 AT TIME STEP      9, STRESS PERIOD     26
 UBDSV06 SAVING              CHD IN MODEL TEST_TRANS       PACKAGE TEST_TRANS      CONNECTED TO MODEL TEST_TRANS       PACKAGE CHD              ON UNIT   1016 AT TIME STEP      9, STRESS PERIOD     26

 HEAD WILL BE SAVED ON UNIT 1017 AT END OF TIME STEP    9, STRESS PERIOD   26


  VOLUME BUDGET FOR ENTIRE MODEL AT END OF TIME STEP    9, STRESS PERIOD  26
  ---------------------------------------------------------------------------------------------------

     CUMULATIVE VOLUME      L**3       RATES FOR THIS TIME STEP      L**3/T          PACKAGE NAME    
     ------------------                 ------------------------                     ----------------

           IN:                                      IN:
           ---                                      ---
              STO-SS =          33.5178                STO-SS =           0.0000     STORAGE         
              STO-SY =       21402.0400                STO-SY =           0.0000     STORAGE         
                 RCH =      127377.5875                   RCH =         286.0273     RCHA            
                 CHD =         141.1190                   CHD =           0.0000     CHD             

            TOTAL IN =      148954.2643              TOTAL IN =         286.0273

          OUT:                                     OUT:
          ----                                     ----
              STO-SS =          30.2468                STO-SS =       9.1792E-02     STORAGE         
              STO-SY =       19408.9742                STO-SY =          57.1533     STORAGE         
                 RCH =           0.0000                   RCH =           0.0000     RCHA            
                 CHD =      129515.9643                   CHD =         228.7888     CHD             

           TOTAL OUT =      148955.1852             TOTAL OUT =         286.0339

            IN - OUT =          -0.9210              IN - OUT =      -6.6239E-03

 PERCENT DISCREPANCY =          -0.00     PERCENT DISCREPANCY =          -0.00




         TIME SUMMARY AT END OF TIME STEP    9 IN STRESS PERIOD   26
                    SECONDS     MINUTES      HOURS       DAYS        YEARS
                    -----------------------------------------------------------
   TIME STEP LENGTH 2.59200E+05  4320.0      72.000      3.0000     8.21355E-03
 STRESS PERIOD TIME 2.33280E+06  38880.      648.00      27.000     7.39220E-02
         TOTAL TIME 6.46272E+07 1.07712E+06  17952.      748.00      2.0479    
 UBDSV1 SAVING           STO-SS ON UNIT   1016 AT TIME STEP     10, STRESS PERIOD     26
 UBDSV1 SAVING           STO-SY ON UNIT   1016 AT TIME STEP     10, STRESS PERIOD     26
 UBDSV1 SAVING     FLOW-JA-FACE ON UNIT   1016 AT TIME STEP     10, STRESS PERIOD     26
 UBDSV06 SAVING              RCH IN MODEL TEST_TRANS       PACKAGE TEST_TRANS      CONNECTED TO MODEL TEST_TRANS       PACKAGE RCHA             ON UNIT   1016 AT TIME STEP     10, STRESS PERIOD     26
 UBDSV06 SAVING              CHD IN MODEL TEST_TRANS       PACKAGE TEST_TRANS      CONNECTED TO MODEL TEST_TRANS       PACKAGE CHD              ON UNIT   1016 AT TIME STEP     10, STRESS PERIOD     26

 HEAD WILL BE SAVED ON UNIT 1017 AT END OF TIME STEP   10, STRESS PERIOD   26


  VOLUME BUDGET FOR ENTIRE MODEL AT END OF TIME STEP   10, STRESS PERIOD  26
  ---------------------------------------------------------------------------------------------------

     CUMULATIVE VOLUME      L**3       RATES FOR THIS TIME STEP      L**3/T          PACKAGE NAME    
     ------------------                 ------------------------                     ----------------

           IN:                                      IN:
           ---                                      ---
              STO-SS =          33.5178                STO-SS =           0.0000     STORAGE         
              STO-SY =       21402.0400                STO-SY =           0.0000     STORAGE         
                 RCH =      128235.6693                   RCH =         286.0273     RCHA            
                 CHD =         141.1190                   CHD =           0.0000     CHD             

            TOTAL IN =      149812.3461              TOTAL IN =         286.0273

          OUT:                                     OUT:
          ----                                     ----
              STO-SS =          30.5176                STO-SS =       9.0271E-02     STORAGE         
              STO-SY =       19577.4714                STO-SY =          56.1657     STORAGE         
                 RCH =           0.0000                   RCH =           0.0000     RCHA            
                 CHD =      130205.2977                   CHD =         229.7778     CHD             

           TOTAL OUT =      149813.2867             TOTAL OUT =         286.0338

            IN - OUT =          -0.9405              IN - OUT =      -6.5168E-03

 PERCENT DISCREPANCY =          -0.00     PERCENT DISCREPANCY =          -0.00




         TIME SUMMARY AT END OF TIME STEP   10 IN STRESS PERIOD   26
                    SECONDS     MINUTES      HOURS       DAYS        YEARS
                    -----------------------------------------------------------
   TIME STEP LENGTH 2.59200E+05  4320.0      72.000      3.0000     8.21355E-03
 STRESS PERIOD TIME 2.59200E+06  43200.      720.00      30.000     8.21355E-02
         TOTAL TIME 6.48864E+07 1.08144E+06  18024.      751.00      2.0561    

 OUTPUT CONTROL FOR STRESS PERIOD 27 IS REPEATED USING SETTINGS FROM A PREVIOUS STRESS PERIOD.


 STRESS PERIOD 27 IS TRANSIENT


                 RECHARGE =  0.2465750E-02
 UBDSV1 SAVING           STO-SS ON UNIT   1016 AT TIME STEP      1, STRESS PERIOD     27
 UBDSV1 SAVING           STO-SY ON UNIT   1016 AT TIME STEP      1, STRESS PERIOD     27
 UBDSV1 SAVING     FLOW-JA-FACE ON UNIT   1016 AT TIME STEP      1, STRESS PERIOD     27
 UBDSV06 SAVING              RCH IN MODEL TEST_TRANS       PACKAGE TEST_TRANS      CONNECTED TO MODEL TEST_TRANS       PACKAGE RCHA             ON UNIT   1016 AT TIME STEP      1, STRESS PERIOD     27
 UBDSV06 SAVING              CHD IN MODEL TEST_TRANS       PACKAGE TEST_TRANS      CONNECTED TO MODEL TEST_TRANS       PACKAGE CHD              ON UNIT   1016 AT TIME STEP      1, STRESS PERIOD     27

 HEAD WILL BE SAVED ON UNIT 1017 AT END OF TIME STEP    1, STRESS PERIOD   27


  VOLUME BUDGET FOR ENTIRE MODEL AT END OF TIME STEP    1, STRESS PERIOD  27
  ---------------------------------------------------------------------------------------------------

     CUMULATIVE VOLUME      L**3       RATES FOR THIS TIME STEP      L**3/T          PACKAGE NAME    
     ------------------                 ------------------------                     ----------------

           IN:                                      IN:
           ---                                      ---
              STO-SS =          33.5417                STO-SS =       7.9731E-03     STORAGE         
              STO-SY =       21417.2080                STO-SY =           5.0560     STORAGE         
                 RCH =      128879.2301                   RCH =         214.5203     RCHA            
                 CHD =         141.1190                   CHD =           0.0000     CHD             

            TOTAL IN =      150471.0987              TOTAL IN =         219.5842

          OUT:                                     OUT:
          ----                                     ----
              STO-SS =          30.7137                STO-SS =       6.5390E-02     STORAGE         
              STO-SY =       19720.3882                STO-SY =          47.6389     STORAGE         
                 RCH =           0.0000                   RCH =           0.0000     RCHA            
                 CHD =      130720.9242                   CHD =         171.8755     CHD             

           TOTAL OUT =      150472.0262             TOTAL OUT =         219.5798

            IN - OUT =          -0.9274              IN - OUT =       4.3613E-03

 PERCENT DISCREPANCY =          -0.00     PERCENT DISCREPANCY =           0.00




         TIME SUMMARY AT END OF TIME STEP    1 IN STRESS PERIOD   27
                    SECONDS     MINUTES      HOURS       DAYS        YEARS
                    -----------------------------------------------------------
   TIME STEP LENGTH 2.59200E+05  4320.0      72.000      3.0000     8.21355E-03
 STRESS PERIOD TIME 2.59200E+05  4320.0      72.000      3.0000     8.21355E-03
         TOTAL TIME 6.51456E+07 1.08576E+06  18096.      754.00      2.0643    
 UBDSV1 SAVING           STO-SS ON UNIT   1016 AT TIME STEP      2, STRESS PERIOD     27
 UBDSV1 SAVING           STO-SY ON UNIT   1016 AT TIME STEP      2, STRESS PERIOD     27
 UBDSV1 SAVING     FLOW-JA-FACE ON UNIT   1016 AT TIME STEP      2, STRESS PERIOD     27
 UBDSV06 SAVING              RCH IN MODEL TEST_TRANS       PACKAGE TEST_TRANS      CONNECTED TO MODEL TEST_TRANS       PACKAGE RCHA             ON UNIT   1016 AT TIME STEP      2, STRESS PERIOD     27
 UBDSV06 SAVING              CHD IN MODEL TEST_TRANS       PACKAGE TEST_TRANS      CONNECTED TO MODEL TEST_TRANS       PACKAGE CHD              ON UNIT   1016 AT TIME STEP      2, STRESS PERIOD     27

 HEAD WILL BE SAVED ON UNIT 1017 AT END OF TIME STEP    2, STRESS PERIOD   27


  VOLUME BUDGET FOR ENTIRE MODEL AT END OF TIME STEP    2, STRESS PERIOD  27
  ---------------------------------------------------------------------------------------------------

     CUMULATIVE VOLUME      L**3       RATES FOR THIS TIME STEP      L**3/T          PACKAGE NAME    
     ------------------                 ------------------------                     ----------------

           IN:                                      IN:
           ---                                      ---
              STO-SS =          33.5562                STO-SS =       4.8422E-03     STORAGE         
              STO-SY =       21426.3046                STO-SY =           3.0322     STORAGE         
                 RCH =      129522.7908                   RCH =         214.5203     RCHA            
                 CHD =         141.1190                   CHD =           0.0000     CHD             

            TOTAL IN =      151123.7706              TOTAL IN =         217.5573

          OUT:                                     OUT:
          ----                                     ----
              STO-SS =          30.8245                STO-SS =       3.6931E-02     STORAGE         
              STO-SY =       19799.2445                STO-SY =          26.2854     STORAGE         
                 RCH =           0.0000                   RCH =           0.0000     RCHA            
                 CHD =      131294.6210                   CHD =         191.2322     CHD             

           TOTAL OUT =      151124.6900             TOTAL OUT =         217.5546

            IN - OUT =          -0.9194              IN - OUT =       2.6723E-03

 PERCENT DISCREPANCY =          -0.00     PERCENT DISCREPANCY =           0.00




         TIME SUMMARY AT END OF TIME STEP    2 IN STRESS PERIOD   27
                    SECONDS     MINUTES      HOURS       DAYS        YEARS
                    -----------------------------------------------------------
   TIME STEP LENGTH 2.59200E+05  4320.0      72.000      3.0000     8.21355E-03
 STRESS PERIOD TIME 5.18400E+05  8640.0      144.00      6.0000     1.64271E-02
         TOTAL TIME 6.54048E+07 1.09008E+06  18168.      757.00      2.0726    
 UBDSV1 SAVING           STO-SS ON UNIT   1016 AT TIME STEP      3, STRESS PERIOD     27
 UBDSV1 SAVING           STO-SY ON UNIT   1016 AT TIME STEP      3, STRESS PERIOD     27
 UBDSV1 SAVING     FLOW-JA-FACE ON UNIT   1016 AT TIME STEP      3, STRESS PERIOD     27
 UBDSV06 SAVING              RCH IN MODEL TEST_TRANS       PACKAGE TEST_TRANS      CONNECTED TO MODEL TEST_TRANS       PACKAGE RCHA             ON UNIT   1016 AT TIME STEP      3, STRESS PERIOD     27
 UBDSV06 SAVING              CHD IN MODEL TEST_TRANS       PACKAGE TEST_TRANS      CONNECTED TO MODEL TEST_TRANS       PACKAGE CHD              ON UNIT   1016 AT TIME STEP      3, STRESS PERIOD     27

 HEAD WILL BE SAVED ON UNIT 1017 AT END OF TIME STEP    3, STRESS PERIOD   27


  VOLUME BUDGET FOR ENTIRE MODEL AT END OF TIME STEP    3, STRESS PERIOD  27
  ---------------------------------------------------------------------------------------------------

     CUMULATIVE VOLUME      L**3       RATES FOR THIS TIME STEP      L**3/T          PACKAGE NAME    
     ------------------                 ------------------------                     ----------------

           IN:                                      IN:
           ---                                      ---
              STO-SS =          33.5651                STO-SS =       2.9591E-03     STORAGE         
              STO-SY =       21431.8156                STO-SY =           1.8370     STORAGE         
                 RCH =      130166.3516                   RCH =         214.5203     RCHA            
                 CHD =         141.1190                   CHD =           0.0000     CHD             

            TOTAL IN =      151772.8512              TOTAL IN =         216.3602

          OUT:                                     OUT:
          ----                                     ----
              STO-SS =          30.8987                STO-SS =       2.4716E-02     STORAGE         
              STO-SY =       19851.2104                STO-SY =          17.3220     STORAGE         
                 RCH =           0.0000                   RCH =           0.0000     RCHA            
                 CHD =      131891.6621                   CHD =         199.0137     CHD             

           TOTAL OUT =      151773.7712             TOTAL OUT =         216.3604

            IN - OUT =          -0.9199              IN - OUT =      -1.7049E-04

 PERCENT DISCREPANCY =          -0.00     PERCENT DISCREPANCY =          -0.00




         TIME SUMMARY AT END OF TIME STEP    3 IN STRESS PERIOD   27
                    SECONDS     MINUTES      HOURS       DAYS        YEARS
                    -----------------------------------------------------------
   TIME STEP LENGTH 2.59200E+05  4320.0      72.000      3.0000     8.21355E-03
 STRESS PERIOD TIME 7.77600E+05  12960.      216.00      9.0000     2.46407E-02
         TOTAL TIME 6.56640E+07 1.09440E+06  18240.      760.00      2.0808    
 UBDSV1 SAVING           STO-SS ON UNIT   1016 AT TIME STEP      4, STRESS PERIOD     27
 UBDSV1 SAVING           STO-SY ON UNIT   1016 AT TIME STEP      4, STRESS PERIOD     27
 UBDSV1 SAVING     FLOW-JA-FACE ON UNIT   1016 AT TIME STEP      4, STRESS PERIOD     27
 UBDSV06 SAVING              RCH IN MODEL TEST_TRANS       PACKAGE TEST_TRANS      CONNECTED TO MODEL TEST_TRANS       PACKAGE RCHA             ON UNIT   1016 AT TIME STEP      4, STRESS PERIOD     27
 UBDSV06 SAVING              CHD IN MODEL TEST_TRANS       PACKAGE TEST_TRANS      CONNECTED TO MODEL TEST_TRANS       PACKAGE CHD              ON UNIT   1016 AT TIME STEP      4, STRESS PERIOD     27

 HEAD WILL BE SAVED ON UNIT 1017 AT END OF TIME STEP    4, STRESS PERIOD   27


  VOLUME BUDGET FOR ENTIRE MODEL AT END OF TIME STEP    4, STRESS PERIOD  27
  ---------------------------------------------------------------------------------------------------

     CUMULATIVE VOLUME      L**3       RATES FOR THIS TIME STEP      L**3/T          PACKAGE NAME    
     ------------------                 ------------------------                     ----------------

           IN:                                      IN:
           ---                                      ---
              STO-SS =          33.5704                STO-SS =       1.7724E-03     STORAGE         
              STO-SY =       21435.0951                STO-SY =           1.0932     STORAGE         
                 RCH =      130809.9123                   RCH =         214.5203     RCHA            
                 CHD =         141.1190                   CHD =           0.0000     CHD             

            TOTAL IN =      152419.6968              TOTAL IN =         215.6152

          OUT:                                     OUT:
          ----                                     ----
              STO-SS =          30.9534                STO-SS =       1.8250E-02     STORAGE         
              STO-SY =       19889.1462                STO-SY =          12.6453     STORAGE         
                 RCH =           0.0000                   RCH =           0.0000     RCHA            
                 CHD =      132500.5226                   CHD =         202.9535     CHD             

           TOTAL OUT =      152420.6223             TOTAL OUT =         215.6170

            IN - OUT =          -0.9254              IN - OUT =      -1.8326E-03

 PERCENT DISCREPANCY =          -0.00     PERCENT DISCREPANCY =          -0.00




         TIME SUMMARY AT END OF TIME STEP    4 IN STRESS PERIOD   27
                    SECONDS     MINUTES      HOURS       DAYS        YEARS
                    -----------------------------------------------------------
   TIME STEP LENGTH 2.59200E+05  4320.0      72.000      3.0000     8.21355E-03
 STRESS PERIOD TIME 1.03680E+06  17280.      288.00      12.000     3.28542E-02
         TOTAL TIME 6.59232E+07 1.09872E+06  18312.      763.00      2.0890    
 UBDSV1 SAVING           STO-SS ON UNIT   1016 AT TIME STEP      5, STRESS PERIOD     27
 UBDSV1 SAVING           STO-SY ON UNIT   1016 AT TIME STEP      5, STRESS PERIOD     27
 UBDSV1 SAVING     FLOW-JA-FACE ON UNIT   1016 AT TIME STEP      5, STRESS PERIOD     27
 UBDSV06 SAVING              RCH IN MODEL TEST_TRANS       PACKAGE TEST_TRANS      CONNECTED TO MODEL TEST_TRANS       PACKAGE RCHA             ON UNIT   1016 AT TIME STEP      5, STRESS PERIOD     27
 UBDSV06 SAVING              CHD IN MODEL TEST_TRANS       PACKAGE TEST_TRANS      CONNECTED TO MODEL TEST_TRANS       PACKAGE CHD              ON UNIT   1016 AT TIME STEP      5, STRESS PERIOD     27

 HEAD WILL BE SAVED ON UNIT 1017 AT END OF TIME STEP    5, STRESS PERIOD   27


  VOLUME BUDGET FOR ENTIRE MODEL AT END OF TIME STEP    5, STRESS PERIOD  27
  ---------------------------------------------------------------------------------------------------

     CUMULATIVE VOLUME      L**3       RATES FOR THIS TIME STEP      L**3/T          PACKAGE NAME    
     ------------------                 ------------------------                     ----------------

           IN:                                      IN:
           ---                                      ---
              STO-SS =          33.5733                STO-SS =       9.6627E-04     STORAGE         
              STO-SY =       21436.8725                STO-SY =           0.5925     STORAGE         
                 RCH =      131453.4731                   RCH =         214.5203     RCHA            
                 CHD =         141.1190                   CHD =           0.0000     CHD             

            TOTAL IN =      153065.0379              TOTAL IN =         215.1137

          OUT:                                     OUT:
          ----                                     ----
              STO-SS =          30.9963                STO-SS =       1.4296E-02     STORAGE         
              STO-SY =       19918.5993                STO-SY =           9.8177     STORAGE         
                 RCH =           0.0000                   RCH =           0.0000     RCHA            
                 CHD =      133116.3808                   CHD =         205.2861     CHD             

           TOTAL OUT =      153065.9765             TOTAL OUT =         215.1181

            IN - OUT =          -0.9385              IN - OUT =      -4.3718E-03

 PERCENT DISCREPANCY =          -0.00     PERCENT DISCREPANCY =          -0.00




         TIME SUMMARY AT END OF TIME STEP    5 IN STRESS PERIOD   27
                    SECONDS     MINUTES      HOURS       DAYS        YEARS
                    -----------------------------------------------------------
   TIME STEP LENGTH 2.59200E+05  4320.0      72.000      3.0000     8.21355E-03
 STRESS PERIOD TIME 1.29600E+06  21600.      360.00      15.000     4.10678E-02
         TOTAL TIME 6.61824E+07 1.10304E+06  18384.      766.00      2.0972    
 UBDSV1 SAVING           STO-SS ON UNIT   1016 AT TIME STEP      6, STRESS PERIOD     27
 UBDSV1 SAVING           STO-SY ON UNIT   1016 AT TIME STEP      6, STRESS PERIOD     27
 UBDSV1 SAVING     FLOW-JA-FACE ON UNIT   1016 AT TIME STEP      6, STRESS PERIOD     27
 UBDSV06 SAVING              RCH IN MODEL TEST_TRANS       PACKAGE TEST_TRANS      CONNECTED TO MODEL TEST_TRANS       PACKAGE RCHA             ON UNIT   1016 AT TIME STEP      6, STRESS PERIOD     27
 UBDSV06 SAVING              CHD IN MODEL TEST_TRANS       PACKAGE TEST_TRANS      CONNECTED TO MODEL TEST_TRANS       PACKAGE CHD              ON UNIT   1016 AT TIME STEP      6, STRESS PERIOD     27

 HEAD WILL BE SAVED ON UNIT 1017 AT END OF TIME STEP    6, STRESS PERIOD   27


  VOLUME BUDGET FOR ENTIRE MODEL AT END OF TIME STEP    6, STRESS PERIOD  27
  ---------------------------------------------------------------------------------------------------

     CUMULATIVE VOLUME      L**3       RATES FOR THIS TIME STEP      L**3/T          PACKAGE NAME    
     ------------------                 ------------------------                     ----------------

           IN:                                      IN:
           ---                                      ---
              STO-SS =          33.5747                STO-SS =       4.6414E-04     STORAGE         
              STO-SY =       21437.7221                STO-SY =           0.2832     STORAGE         
                 RCH =      132097.0338                   RCH =         214.5203     RCHA            
                 CHD =         141.1190                   CHD =           0.0000     CHD             

            TOTAL IN =      153709.4496              TOTAL IN =         214.8039

          OUT:                                     OUT:
          ----                                     ----
              STO-SS =          31.0315                STO-SS =       1.1713E-02     STORAGE         
              STO-SY =       19942.5449                STO-SY =           7.9819     STORAGE         
                 RCH =           0.0000                   RCH =           0.0000     RCHA            
                 CHD =      133736.8222                   CHD =         206.8138     CHD             

           TOTAL OUT =      153710.3986             TOTAL OUT =         214.8074

            IN - OUT =          -0.9490              IN - OUT =      -3.4855E-03

 PERCENT DISCREPANCY =          -0.00     PERCENT DISCREPANCY =          -0.00




         TIME SUMMARY AT END OF TIME STEP    6 IN STRESS PERIOD   27
                    SECONDS     MINUTES      HOURS       DAYS        YEARS
                    -----------------------------------------------------------
   TIME STEP LENGTH 2.59200E+05  4320.0      72.000      3.0000     8.21355E-03
 STRESS PERIOD TIME 1.55520E+06  25920.      432.00      18.000     4.92813E-02
         TOTAL TIME 6.64416E+07 1.10736E+06  18456.      769.00      2.1054    
 UBDSV1 SAVING           STO-SS ON UNIT   1016 AT TIME STEP      7, STRESS PERIOD     27
 UBDSV1 SAVING           STO-SY ON UNIT   1016 AT TIME STEP      7, STRESS PERIOD     27
 UBDSV1 SAVING     FLOW-JA-FACE ON UNIT   1016 AT TIME STEP      7, STRESS PERIOD     27
 UBDSV06 SAVING              RCH IN MODEL TEST_TRANS       PACKAGE TEST_TRANS      CONNECTED TO MODEL TEST_TRANS       PACKAGE RCHA             ON UNIT   1016 AT TIME STEP      7, STRESS PERIOD     27
 UBDSV06 SAVING              CHD IN MODEL TEST_TRANS       PACKAGE TEST_TRANS      CONNECTED TO MODEL TEST_TRANS       PACKAGE CHD              ON UNIT   1016 AT TIME STEP      7, STRESS PERIOD     27

 HEAD WILL BE SAVED ON UNIT 1017 AT END OF TIME STEP    7, STRESS PERIOD   27


  VOLUME BUDGET FOR ENTIRE MODEL AT END OF TIME STEP    7, STRESS PERIOD  27
  ---------------------------------------------------------------------------------------------------

     CUMULATIVE VOLUME      L**3       RATES FOR THIS TIME STEP      L**3/T          PACKAGE NAME    
     ------------------                 ------------------------                     ----------------

           IN:                                      IN:
           ---                                      ---
              STO-SS =          33.5752                STO-SS =       1.6083E-04     STORAGE         
              STO-SY =       21438.0150                STO-SY =       9.7649E-02     STORAGE         
                 RCH =      132740.5946                   RCH =         214.5203     RCHA            
                 CHD =         141.1190                   CHD =           0.0000     CHD             

            TOTAL IN =      154353.3038              TOTAL IN =         214.6181

          OUT:                                     OUT:
          ----                                     ----
              STO-SS =          31.0613                STO-SS =       9.9414E-03     STORAGE         
              STO-SY =       19962.7216                STO-SY =           6.7255     STORAGE         
                 RCH =           0.0000                   RCH =           0.0000     RCHA            
                 CHD =      134360.4796                   CHD =         207.8858     CHD             

           TOTAL OUT =      154354.2624             TOTAL OUT =         214.6213

            IN - OUT =          -0.9586              IN - OUT =      -3.2126E-03

 PERCENT DISCREPANCY =          -0.00     PERCENT DISCREPANCY =          -0.00




         TIME SUMMARY AT END OF TIME STEP    7 IN STRESS PERIOD   27
                    SECONDS     MINUTES      HOURS       DAYS        YEARS
                    -----------------------------------------------------------
   TIME STEP LENGTH 2.59200E+05  4320.0      72.000      3.0000     8.21355E-03
 STRESS PERIOD TIME 1.81440E+06  30240.      504.00      21.000     5.74949E-02
         TOTAL TIME 6.67008E+07 1.11168E+06  18528.      772.00      2.1136    
 UBDSV1 SAVING           STO-SS ON UNIT   1016 AT TIME STEP      8, STRESS PERIOD     27
 UBDSV1 SAVING           STO-SY ON UNIT   1016 AT TIME STEP      8, STRESS PERIOD     27
 UBDSV1 SAVING     FLOW-JA-FACE ON UNIT   1016 AT TIME STEP      8, STRESS PERIOD     27
 UBDSV06 SAVING              RCH IN MODEL TEST_TRANS       PACKAGE TEST_TRANS      CONNECTED TO MODEL TEST_TRANS       PACKAGE RCHA             ON UNIT   1016 AT TIME STEP      8, STRESS PERIOD     27
 UBDSV06 SAVING              CHD IN MODEL TEST_TRANS       PACKAGE TEST_TRANS      CONNECTED TO MODEL TEST_TRANS       PACKAGE CHD              ON UNIT   1016 AT TIME STEP      8, STRESS PERIOD     27

 HEAD WILL BE SAVED ON UNIT 1017 AT END OF TIME STEP    8, STRESS PERIOD   27


  VOLUME BUDGET FOR ENTIRE MODEL AT END OF TIME STEP    8, STRESS PERIOD  27
  ---------------------------------------------------------------------------------------------------

     CUMULATIVE VOLUME      L**3       RATES FOR THIS TIME STEP      L**3/T          PACKAGE NAME    
     ------------------                 ------------------------                     ----------------

           IN:                                      IN:
           ---                                      ---
              STO-SS =          33.5752                STO-SS =       1.3496E-05     STORAGE         
              STO-SY =       21438.0395                STO-SY =       8.1557E-03     STORAGE         
                 RCH =      133384.1553                   RCH =         214.5203     RCHA            
                 CHD =         141.1190                   CHD =           0.0000     CHD             

            TOTAL IN =      154996.8890              TOTAL IN =         214.5284

          OUT:                                     OUT:
          ----                                     ----
              STO-SS =          31.0874                STO-SS =       8.7038E-03     STORAGE         
              STO-SY =       19980.2599                STO-SY =           5.8461     STORAGE         
                 RCH =           0.0000                   RCH =           0.0000     RCHA            
                 CHD =      134986.5082                   CHD =         208.6762     CHD             

           TOTAL OUT =      154997.8555             TOTAL OUT =         214.5310

            IN - OUT =          -0.9665              IN - OUT =      -2.6082E-03

 PERCENT DISCREPANCY =          -0.00     PERCENT DISCREPANCY =          -0.00




         TIME SUMMARY AT END OF TIME STEP    8 IN STRESS PERIOD   27
                    SECONDS     MINUTES      HOURS       DAYS        YEARS
                    -----------------------------------------------------------
   TIME STEP LENGTH 2.59200E+05  4320.0      72.000      3.0000     8.21355E-03
 STRESS PERIOD TIME 2.07360E+06  34560.      576.00      24.000     6.57084E-02
         TOTAL TIME 6.69600E+07 1.11600E+06  18600.      775.00      2.1218    
 UBDSV1 SAVING           STO-SS ON UNIT   1016 AT TIME STEP      9, STRESS PERIOD     27
 UBDSV1 SAVING           STO-SY ON UNIT   1016 AT TIME STEP      9, STRESS PERIOD     27
 UBDSV1 SAVING     FLOW-JA-FACE ON UNIT   1016 AT TIME STEP      9, STRESS PERIOD     27
 UBDSV06 SAVING              RCH IN MODEL TEST_TRANS       PACKAGE TEST_TRANS      CONNECTED TO MODEL TEST_TRANS       PACKAGE RCHA             ON UNIT   1016 AT TIME STEP      9, STRESS PERIOD     27
 UBDSV06 SAVING              CHD IN MODEL TEST_TRANS       PACKAGE TEST_TRANS      CONNECTED TO MODEL TEST_TRANS       PACKAGE CHD              ON UNIT   1016 AT TIME STEP      9, STRESS PERIOD     27

 HEAD WILL BE SAVED ON UNIT 1017 AT END OF TIME STEP    9, STRESS PERIOD   27


  VOLUME BUDGET FOR ENTIRE MODEL AT END OF TIME STEP    9, STRESS PERIOD  27
  ---------------------------------------------------------------------------------------------------

     CUMULATIVE VOLUME      L**3       RATES FOR THIS TIME STEP      L**3/T          PACKAGE NAME    
     ------------------                 ------------------------                     ----------------

           IN:                                      IN:
           ---                                      ---
              STO-SS =          33.5752                STO-SS =           0.0000     STORAGE         
              STO-SY =       21438.0395                STO-SY =           0.0000     STORAGE         
                 RCH =      134027.7161                   RCH =         214.5203     RCHA            
                 CHD =         141.1190                   CHD =           0.0000     CHD             

            TOTAL IN =      155640.4498              TOTAL IN =         214.5203

          OUT:                                     OUT:
          ----                                     ----
              STO-SS =          31.1109                STO-SS =       7.8508E-03     STORAGE         
              STO-SY =       19995.9595                STO-SY =           5.2332     STORAGE         
                 RCH =           0.0000                   RCH =           0.0000     RCHA            
                 CHD =      135614.3523                   CHD =         209.2813     CHD             

           TOTAL OUT =      155641.4227             TOTAL OUT =         214.5224

            IN - OUT =          -0.9729              IN - OUT =      -2.1475E-03

 PERCENT DISCREPANCY =          -0.00     PERCENT DISCREPANCY =          -0.00




         TIME SUMMARY AT END OF TIME STEP    9 IN STRESS PERIOD   27
                    SECONDS     MINUTES      HOURS       DAYS        YEARS
                    -----------------------------------------------------------
   TIME STEP LENGTH 2.59200E+05  4320.0      72.000      3.0000     8.21355E-03
 STRESS PERIOD TIME 2.33280E+06  38880.      648.00      27.000     7.39220E-02
         TOTAL TIME 6.72192E+07 1.12032E+06  18672.      778.00      2.1300    
 UBDSV1 SAVING           STO-SS ON UNIT   1016 AT TIME STEP     10, STRESS PERIOD     27
 UBDSV1 SAVING           STO-SY ON UNIT   1016 AT TIME STEP     10, STRESS PERIOD     27
 UBDSV1 SAVING     FLOW-JA-FACE ON UNIT   1016 AT TIME STEP     10, STRESS PERIOD     27
 UBDSV06 SAVING              RCH IN MODEL TEST_TRANS       PACKAGE TEST_TRANS      CONNECTED TO MODEL TEST_TRANS       PACKAGE RCHA             ON UNIT   1016 AT TIME STEP     10, STRESS PERIOD     27
 UBDSV06 SAVING              CHD IN MODEL TEST_TRANS       PACKAGE TEST_TRANS      CONNECTED TO MODEL TEST_TRANS       PACKAGE CHD              ON UNIT   1016 AT TIME STEP     10, STRESS PERIOD     27

 HEAD WILL BE SAVED ON UNIT 1017 AT END OF TIME STEP   10, STRESS PERIOD   27


  VOLUME BUDGET FOR ENTIRE MODEL AT END OF TIME STEP   10, STRESS PERIOD  27
  ---------------------------------------------------------------------------------------------------

     CUMULATIVE VOLUME      L**3       RATES FOR THIS TIME STEP      L**3/T          PACKAGE NAME    
     ------------------                 ------------------------                     ----------------

           IN:                                      IN:
           ---                                      ---
              STO-SS =          33.5752                STO-SS =           0.0000     STORAGE         
              STO-SY =       21438.0395                STO-SY =           0.0000     STORAGE         
                 RCH =      134671.2768                   RCH =         214.5203     RCHA            
                 CHD =         141.1190                   CHD =           0.0000     CHD             

            TOTAL IN =      156284.0105              TOTAL IN =         214.5203

          OUT:                                     OUT:
          ----                                     ----
              STO-SS =          31.1326                STO-SS =       7.2217E-03     STORAGE         
              STO-SY =       20010.3005                STO-SY =           4.7803     STORAGE         
                 RCH =           0.0000                   RCH =           0.0000     RCHA            
                 CHD =      136243.6272                   CHD =         209.7583     CHD             

           TOTAL OUT =      156285.0603             TOTAL OUT =         214.5459

            IN - OUT =          -1.0498              IN - OUT =      -2.5623E-02

 PERCENT DISCREPANCY =          -0.00     PERCENT DISCREPANCY =          -0.01




         TIME SUMMARY AT END OF TIME STEP   10 IN STRESS PERIOD   27
                    SECONDS     MINUTES      HOURS       DAYS        YEARS
                    -----------------------------------------------------------
   TIME STEP LENGTH 2.59200E+05  4320.0      72.000      3.0000     8.21355E-03
 STRESS PERIOD TIME 2.59200E+06  43200.      720.00      30.000     8.21355E-02
         TOTAL TIME 6.74784E+07 1.12464E+06  18744.      781.00      2.1383    

 OUTPUT CONTROL FOR STRESS PERIOD 28 IS REPEATED USING SETTINGS FROM A PREVIOUS STRESS PERIOD.


 STRESS PERIOD 28 IS TRANSIENT


                 RECHARGE =  0.1643840E-02
 UBDSV1 SAVING           STO-SS ON UNIT   1016 AT TIME STEP      1, STRESS PERIOD     28
 UBDSV1 SAVING           STO-SY ON UNIT   1016 AT TIME STEP      1, STRESS PERIOD     28
 UBDSV1 SAVING     FLOW-JA-FACE ON UNIT   1016 AT TIME STEP      1, STRESS PERIOD     28
 UBDSV06 SAVING              RCH IN MODEL TEST_TRANS       PACKAGE TEST_TRANS      CONNECTED TO MODEL TEST_TRANS       PACKAGE RCHA             ON UNIT   1016 AT TIME STEP      1, STRESS PERIOD     28
 UBDSV06 SAVING              CHD IN MODEL TEST_TRANS       PACKAGE TEST_TRANS      CONNECTED TO MODEL TEST_TRANS       PACKAGE CHD              ON UNIT   1016 AT TIME STEP      1, STRESS PERIOD     28

 HEAD WILL BE SAVED ON UNIT 1017 AT END OF TIME STEP    1, STRESS PERIOD   28


  VOLUME BUDGET FOR ENTIRE MODEL AT END OF TIME STEP    1, STRESS PERIOD  28
  ---------------------------------------------------------------------------------------------------

     CUMULATIVE VOLUME      L**3       RATES FOR THIS TIME STEP      L**3/T          PACKAGE NAME    
     ------------------                 ------------------------                     ----------------

           IN:                                      IN:
           ---                                      ---
              STO-SS =          33.8192                STO-SS =       8.1328E-02     STORAGE         
              STO-SY =       21588.0844                STO-SY =          50.0150     STORAGE         
                 RCH =      135100.3191                   RCH =         143.0141     RCHA            
                 CHD =         141.1190                   CHD =           0.0000     CHD             

            TOTAL IN =      156863.3417              TOTAL IN =         193.1104

          OUT:                                     OUT:
          ----                                     ----
              STO-SS =          31.4295                STO-SS =       9.8962E-02     STORAGE         
              STO-SY =       20224.2520                STO-SY =          71.3172     STORAGE         
                 RCH =           0.0000                   RCH =           0.0000     RCHA            
                 CHD =      136608.6935                   CHD =         121.6888     CHD             

           TOTAL OUT =      156864.3750             TOTAL OUT =         193.1049

            IN - OUT =          -1.0333              IN - OUT =       5.5032E-03

 PERCENT DISCREPANCY =          -0.00     PERCENT DISCREPANCY =           0.00




         TIME SUMMARY AT END OF TIME STEP    1 IN STRESS PERIOD   28
                    SECONDS     MINUTES      HOURS       DAYS        YEARS
                    -----------------------------------------------------------
   TIME STEP LENGTH 2.59200E+05  4320.0      72.000      3.0000     8.21355E-03
 STRESS PERIOD TIME 2.59200E+05  4320.0      72.000      3.0000     8.21355E-03
         TOTAL TIME 6.77376E+07 1.12896E+06  18816.      784.00      2.1465    
 UBDSV1 SAVING           STO-SS ON UNIT   1016 AT TIME STEP      2, STRESS PERIOD     28
 UBDSV1 SAVING           STO-SY ON UNIT   1016 AT TIME STEP      2, STRESS PERIOD     28
 UBDSV1 SAVING     FLOW-JA-FACE ON UNIT   1016 AT TIME STEP      2, STRESS PERIOD     28
 UBDSV06 SAVING              RCH IN MODEL TEST_TRANS       PACKAGE TEST_TRANS      CONNECTED TO MODEL TEST_TRANS       PACKAGE RCHA             ON UNIT   1016 AT TIME STEP      2, STRESS PERIOD     28
 UBDSV06 SAVING              CHD IN MODEL TEST_TRANS       PACKAGE TEST_TRANS      CONNECTED TO MODEL TEST_TRANS       PACKAGE CHD              ON UNIT   1016 AT TIME STEP      2, STRESS PERIOD     28

 HEAD WILL BE SAVED ON UNIT 1017 AT END OF TIME STEP    2, STRESS PERIOD   28


  VOLUME BUDGET FOR ENTIRE MODEL AT END OF TIME STEP    2, STRESS PERIOD  28
  ---------------------------------------------------------------------------------------------------

     CUMULATIVE VOLUME      L**3       RATES FOR THIS TIME STEP      L**3/T          PACKAGE NAME    
     ------------------                 ------------------------                     ----------------

           IN:                                      IN:
           ---                                      ---
              STO-SS =          34.0427                STO-SS =       7.4509E-02     STORAGE         
              STO-SY =       21725.0916                STO-SY =          45.6690     STORAGE         
                 RCH =      135529.3613                   RCH =         143.0141     RCHA            
                 CHD =         141.1190                   CHD =           0.0000     CHD             

            TOTAL IN =      157429.6146              TOTAL IN =         188.7576

          OUT:                                     OUT:
          ----                                     ----
              STO-SS =          31.5857                STO-SS =       5.2056E-02     STORAGE         
              STO-SY =       20334.5694                STO-SY =          36.7725     STORAGE         
                 RCH =           0.0000                   RCH =           0.0000     RCHA            
                 CHD =      137064.4865                   CHD =         151.9310     CHD             

           TOTAL OUT =      157430.6415             TOTAL OUT =         188.7555

            IN - OUT =          -1.0269              IN - OUT =       2.1124E-03

 PERCENT DISCREPANCY =          -0.00     PERCENT DISCREPANCY =           0.00




         TIME SUMMARY AT END OF TIME STEP    2 IN STRESS PERIOD   28
                    SECONDS     MINUTES      HOURS       DAYS        YEARS
                    -----------------------------------------------------------
   TIME STEP LENGTH 2.59200E+05  4320.0      72.000      3.0000     8.21355E-03
 STRESS PERIOD TIME 5.18400E+05  8640.0      144.00      6.0000     1.64271E-02
         TOTAL TIME 6.79968E+07 1.13328E+06  18888.      787.00      2.1547    
 UBDSV1 SAVING           STO-SS ON UNIT   1016 AT TIME STEP      3, STRESS PERIOD     28
 UBDSV1 SAVING           STO-SY ON UNIT   1016 AT TIME STEP      3, STRESS PERIOD     28
 UBDSV1 SAVING     FLOW-JA-FACE ON UNIT   1016 AT TIME STEP      3, STRESS PERIOD     28
 UBDSV06 SAVING              RCH IN MODEL TEST_TRANS       PACKAGE TEST_TRANS      CONNECTED TO MODEL TEST_TRANS       PACKAGE RCHA             ON UNIT   1016 AT TIME STEP      3, STRESS PERIOD     28
 UBDSV06 SAVING              CHD IN MODEL TEST_TRANS       PACKAGE TEST_TRANS      CONNECTED TO MODEL TEST_TRANS       PACKAGE CHD              ON UNIT   1016 AT TIME STEP      3, STRESS PERIOD     28

 HEAD WILL BE SAVED ON UNIT 1017 AT END OF TIME STEP    3, STRESS PERIOD   28


  VOLUME BUDGET FOR ENTIRE MODEL AT END OF TIME STEP    3, STRESS PERIOD  28
  ---------------------------------------------------------------------------------------------------

     CUMULATIVE VOLUME      L**3       RATES FOR THIS TIME STEP      L**3/T          PACKAGE NAME    
     ------------------                 ------------------------                     ----------------

           IN:                                      IN:
           ---                                      ---
              STO-SS =          34.2509                STO-SS =       6.9377E-02     STORAGE         
              STO-SY =       21852.4353                STO-SY =          42.4479     STORAGE         
                 RCH =      135958.4036                   RCH =         143.0141     RCHA            
                 CHD =         141.1190                   CHD =           0.0000     CHD             

            TOTAL IN =      157986.2088              TOTAL IN =         185.5314

          OUT:                                     OUT:
          ----                                     ----
              STO-SS =          31.6802                STO-SS =       3.1513E-02     STORAGE         
              STO-SY =       20400.6275                STO-SY =          22.0194     STORAGE         
                 RCH =           0.0000                   RCH =           0.0000     RCHA            
                 CHD =      137554.9245                   CHD =         163.4793     CHD             

           TOTAL OUT =      157987.2321             TOTAL OUT =         185.5302

            IN - OUT =          -1.0234              IN - OUT =       1.1808E-03

 PERCENT DISCREPANCY =          -0.00     PERCENT DISCREPANCY =           0.00




         TIME SUMMARY AT END OF TIME STEP    3 IN STRESS PERIOD   28
                    SECONDS     MINUTES      HOURS       DAYS        YEARS
                    -----------------------------------------------------------
   TIME STEP LENGTH 2.59200E+05  4320.0      72.000      3.0000     8.21355E-03
 STRESS PERIOD TIME 7.77600E+05  12960.      216.00      9.0000     2.46407E-02
         TOTAL TIME 6.82560E+07 1.13760E+06  18960.      790.00      2.1629    
 UBDSV1 SAVING           STO-SS ON UNIT   1016 AT TIME STEP      4, STRESS PERIOD     28
 UBDSV1 SAVING           STO-SY ON UNIT   1016 AT TIME STEP      4, STRESS PERIOD     28
 UBDSV1 SAVING     FLOW-JA-FACE ON UNIT   1016 AT TIME STEP      4, STRESS PERIOD     28
 UBDSV06 SAVING              RCH IN MODEL TEST_TRANS       PACKAGE TEST_TRANS      CONNECTED TO MODEL TEST_TRANS       PACKAGE RCHA             ON UNIT   1016 AT TIME STEP      4, STRESS PERIOD     28
 UBDSV06 SAVING              CHD IN MODEL TEST_TRANS       PACKAGE TEST_TRANS      CONNECTED TO MODEL TEST_TRANS       PACKAGE CHD              ON UNIT   1016 AT TIME STEP      4, STRESS PERIOD     28

 HEAD WILL BE SAVED ON UNIT 1017 AT END OF TIME STEP    4, STRESS PERIOD   28


  VOLUME BUDGET FOR ENTIRE MODEL AT END OF TIME STEP    4, STRESS PERIOD  28
  ---------------------------------------------------------------------------------------------------

     CUMULATIVE VOLUME      L**3       RATES FOR THIS TIME STEP      L**3/T          PACKAGE NAME    
     ------------------                 ------------------------                     ----------------

           IN:                                      IN:
           ---                                      ---
              STO-SS =          34.4473                STO-SS =       6.5487E-02     STORAGE         
              STO-SY =       21972.5472                STO-SY =          40.0373     STORAGE         
                 RCH =      136387.4458                   RCH =         143.0141     RCHA            
                 CHD =         141.1190                   CHD =           0.0000     CHD             

            TOTAL IN =      158535.5593              TOTAL IN =         183.1169

          OUT:                                     OUT:
          ----                                     ----
              STO-SS =          31.7409                STO-SS =       2.0235E-02     STORAGE         
              STO-SY =       20442.7678                STO-SY =          14.0468     STORAGE         
                 RCH =           0.0000                   RCH =           0.0000     RCHA            
                 CHD =      138062.0748                   CHD =         169.0501     CHD             

           TOTAL OUT =      158536.5834             TOTAL OUT =         183.1171

            IN - OUT =          -1.0241              IN - OUT =      -2.4533E-04

 PERCENT DISCREPANCY =          -0.00     PERCENT DISCREPANCY =          -0.00




         TIME SUMMARY AT END OF TIME STEP    4 IN STRESS PERIOD   28
                    SECONDS     MINUTES      HOURS       DAYS        YEARS
                    -----------------------------------------------------------
   TIME STEP LENGTH 2.59200E+05  4320.0      72.000      3.0000     8.21355E-03
 STRESS PERIOD TIME 1.03680E+06  17280.      288.00      12.000     3.28542E-02
         TOTAL TIME 6.85152E+07 1.14192E+06  19032.      793.00      2.1711    
 UBDSV1 SAVING           STO-SS ON UNIT   1016 AT TIME STEP      5, STRESS PERIOD     28
 UBDSV1 SAVING           STO-SY ON UNIT   1016 AT TIME STEP      5, STRESS PERIOD     28
 UBDSV1 SAVING     FLOW-JA-FACE ON UNIT   1016 AT TIME STEP      5, STRESS PERIOD     28
 UBDSV06 SAVING              RCH IN MODEL TEST_TRANS       PACKAGE TEST_TRANS      CONNECTED TO MODEL TEST_TRANS       PACKAGE RCHA             ON UNIT   1016 AT TIME STEP      5, STRESS PERIOD     28
 UBDSV06 SAVING              CHD IN MODEL TEST_TRANS       PACKAGE TEST_TRANS      CONNECTED TO MODEL TEST_TRANS       PACKAGE CHD              ON UNIT   1016 AT TIME STEP      5, STRESS PERIOD     28

 HEAD WILL BE SAVED ON UNIT 1017 AT END OF TIME STEP    5, STRESS PERIOD   28


  VOLUME BUDGET FOR ENTIRE MODEL AT END OF TIME STEP    5, STRESS PERIOD  28
  ---------------------------------------------------------------------------------------------------

     CUMULATIVE VOLUME      L**3       RATES FOR THIS TIME STEP      L**3/T          PACKAGE NAME    
     ------------------                 ------------------------                     ----------------

           IN:                                      IN:
           ---                                      ---
              STO-SS =          34.6344                STO-SS =       6.2355E-02     STORAGE         
              STO-SY =       22086.8916                STO-SY =          38.1148     STORAGE         
                 RCH =      136816.4880                   RCH =         143.0141     RCHA            
                 CHD =         141.1190                   CHD =           0.0000     CHD             

            TOTAL IN =      159079.1330              TOTAL IN =         181.1912

          OUT:                                     OUT:
          ----                                     ----
              STO-SS =          31.7801                STO-SS =       1.3065E-02     STORAGE         
              STO-SY =       20469.8867                STO-SY =           9.0396     STORAGE         
                 RCH =           0.0000                   RCH =           0.0000     RCHA            
                 CHD =      138578.4914                   CHD =         172.1389     CHD             

           TOTAL OUT =      159080.1582             TOTAL OUT =         181.1916

            IN - OUT =          -1.0252              IN - OUT =      -3.6442E-04

 PERCENT DISCREPANCY =          -0.00     PERCENT DISCREPANCY =          -0.00




         TIME SUMMARY AT END OF TIME STEP    5 IN STRESS PERIOD   28
                    SECONDS     MINUTES      HOURS       DAYS        YEARS
                    -----------------------------------------------------------
   TIME STEP LENGTH 2.59200E+05  4320.0      72.000      3.0000     8.21355E-03
 STRESS PERIOD TIME 1.29600E+06  21600.      360.00      15.000     4.10678E-02
         TOTAL TIME 6.87744E+07 1.14624E+06  19104.      796.00      2.1793    
 UBDSV1 SAVING           STO-SS ON UNIT   1016 AT TIME STEP      6, STRESS PERIOD     28
 UBDSV1 SAVING           STO-SY ON UNIT   1016 AT TIME STEP      6, STRESS PERIOD     28
 UBDSV1 SAVING     FLOW-JA-FACE ON UNIT   1016 AT TIME STEP      6, STRESS PERIOD     28
 UBDSV06 SAVING              RCH IN MODEL TEST_TRANS       PACKAGE TEST_TRANS      CONNECTED TO MODEL TEST_TRANS       PACKAGE RCHA             ON UNIT   1016 AT TIME STEP      6, STRESS PERIOD     28
 UBDSV06 SAVING              CHD IN MODEL TEST_TRANS       PACKAGE TEST_TRANS      CONNECTED TO MODEL TEST_TRANS       PACKAGE CHD              ON UNIT   1016 AT TIME STEP      6, STRESS PERIOD     28

 HEAD WILL BE SAVED ON UNIT 1017 AT END OF TIME STEP    6, STRESS PERIOD   28


  VOLUME BUDGET FOR ENTIRE MODEL AT END OF TIME STEP    6, STRESS PERIOD  28
  ---------------------------------------------------------------------------------------------------

     CUMULATIVE VOLUME      L**3       RATES FOR THIS TIME STEP      L**3/T          PACKAGE NAME    
     ------------------                 ------------------------                     ----------------

           IN:                                      IN:
           ---                                      ---
              STO-SS =          34.8139                STO-SS =       5.9836E-02     STORAGE         
              STO-SY =       22196.6391                STO-SY =          36.5825     STORAGE         
                 RCH =      137245.5303                   RCH =         143.0141     RCHA            
                 CHD =         141.1190                   CHD =           0.0000     CHD             

            TOTAL IN =      159618.1022              TOTAL IN =         179.6564

          OUT:                                     OUT:
          ----                                     ----
              STO-SS =          31.8047                STO-SS =       8.2011E-03     STORAGE         
              STO-SY =       20486.8971                STO-SY =           5.6701     STORAGE         
                 RCH =           0.0000                   RCH =           0.0000     RCHA            
                 CHD =      139100.4276                   CHD =         173.9787     CHD             

           TOTAL OUT =      159619.1294             TOTAL OUT =         179.6571

            IN - OUT =          -1.0272              IN - OUT =      -6.6353E-04

 PERCENT DISCREPANCY =          -0.00     PERCENT DISCREPANCY =          -0.00




         TIME SUMMARY AT END OF TIME STEP    6 IN STRESS PERIOD   28
                    SECONDS     MINUTES      HOURS       DAYS        YEARS
                    -----------------------------------------------------------
   TIME STEP LENGTH 2.59200E+05  4320.0      72.000      3.0000     8.21355E-03
 STRESS PERIOD TIME 1.55520E+06  25920.      432.00      18.000     4.92813E-02
         TOTAL TIME 6.90336E+07 1.15056E+06  19176.      799.00      2.1875    
 UBDSV1 SAVING           STO-SS ON UNIT   1016 AT TIME STEP      7, STRESS PERIOD     28
 UBDSV1 SAVING           STO-SY ON UNIT   1016 AT TIME STEP      7, STRESS PERIOD     28
 UBDSV1 SAVING     FLOW-JA-FACE ON UNIT   1016 AT TIME STEP      7, STRESS PERIOD     28
 UBDSV06 SAVING              RCH IN MODEL TEST_TRANS       PACKAGE TEST_TRANS      CONNECTED TO MODEL TEST_TRANS       PACKAGE RCHA             ON UNIT   1016 AT TIME STEP      7, STRESS PERIOD     28
 UBDSV06 SAVING              CHD IN MODEL TEST_TRANS       PACKAGE TEST_TRANS      CONNECTED TO MODEL TEST_TRANS       PACKAGE CHD              ON UNIT   1016 AT TIME STEP      7, STRESS PERIOD     28

 HEAD WILL BE SAVED ON UNIT 1017 AT END OF TIME STEP    7, STRESS PERIOD   28


  VOLUME BUDGET FOR ENTIRE MODEL AT END OF TIME STEP    7, STRESS PERIOD  28
  ---------------------------------------------------------------------------------------------------

     CUMULATIVE VOLUME      L**3       RATES FOR THIS TIME STEP      L**3/T          PACKAGE NAME    
     ------------------                 ------------------------                     ----------------

           IN:                                      IN:
           ---                                      ---
              STO-SS =          34.9877                STO-SS =       5.7916E-02     STORAGE         
              STO-SY =       22302.9349                STO-SY =          35.4320     STORAGE         
                 RCH =      137674.5725                   RCH =         143.0141     RCHA            
                 CHD =         141.1190                   CHD =           0.0000     CHD             

            TOTAL IN =      160153.6141              TOTAL IN =         178.5039

          OUT:                                     OUT:
          ----                                     ----
              STO-SS =          31.8194                STO-SS =       4.9073E-03     STORAGE         
              STO-SY =       20497.0854                STO-SY =           3.3961     STORAGE         
                 RCH =           0.0000                   RCH =           0.0000     RCHA            
                 CHD =      139625.7361                   CHD =         175.1028     CHD             

           TOTAL OUT =      160154.6409             TOTAL OUT =         178.5038

            IN - OUT =          -1.0268              IN - OUT =       1.3442E-04

 PERCENT DISCREPANCY =          -0.00     PERCENT DISCREPANCY =           0.00




         TIME SUMMARY AT END OF TIME STEP    7 IN STRESS PERIOD   28
                    SECONDS     MINUTES      HOURS       DAYS        YEARS
                    -----------------------------------------------------------
   TIME STEP LENGTH 2.59200E+05  4320.0      72.000      3.0000     8.21355E-03
 STRESS PERIOD TIME 1.81440E+06  30240.      504.00      21.000     5.74949E-02
         TOTAL TIME 6.92928E+07 1.15488E+06  19248.      802.00      2.1958    
 UBDSV1 SAVING           STO-SS ON UNIT   1016 AT TIME STEP      8, STRESS PERIOD     28
 UBDSV1 SAVING           STO-SY ON UNIT   1016 AT TIME STEP      8, STRESS PERIOD     28
 UBDSV1 SAVING     FLOW-JA-FACE ON UNIT   1016 AT TIME STEP      8, STRESS PERIOD     28
 UBDSV06 SAVING              RCH IN MODEL TEST_TRANS       PACKAGE TEST_TRANS      CONNECTED TO MODEL TEST_TRANS       PACKAGE RCHA             ON UNIT   1016 AT TIME STEP      8, STRESS PERIOD     28
 UBDSV06 SAVING              CHD IN MODEL TEST_TRANS       PACKAGE TEST_TRANS      CONNECTED TO MODEL TEST_TRANS       PACKAGE CHD              ON UNIT   1016 AT TIME STEP      8, STRESS PERIOD     28

 HEAD WILL BE SAVED ON UNIT 1017 AT END OF TIME STEP    8, STRESS PERIOD   28


  VOLUME BUDGET FOR ENTIRE MODEL AT END OF TIME STEP    8, STRESS PERIOD  28
  ---------------------------------------------------------------------------------------------------

     CUMULATIVE VOLUME      L**3       RATES FOR THIS TIME STEP      L**3/T          PACKAGE NAME    
     ------------------                 ------------------------                     ----------------

           IN:                                      IN:
           ---                                      ---
              STO-SS =          35.1568                STO-SS =       5.6395E-02     STORAGE         
              STO-SY =       22406.5349                STO-SY =          34.5333     STORAGE         
                 RCH =      138103.6148                   RCH =         143.0141     RCHA            
                 CHD =         141.1190                   CHD =           0.0000     CHD             

            TOTAL IN =      160686.4255              TOTAL IN =         177.6038

          OUT:                                     OUT:
          ----                                     ----
              STO-SS =          31.8273                STO-SS =       2.6214E-03     STORAGE         
              STO-SY =       20502.5482                STO-SY =           1.8209     STORAGE         
                 RCH =           0.0000                   RCH =           0.0000     RCHA            
                 CHD =      140153.0747                   CHD =         175.7795     CHD             

           TOTAL OUT =      160687.4502             TOTAL OUT =         177.6031

            IN - OUT =          -1.0247              IN - OUT =       6.8973E-04

 PERCENT DISCREPANCY =          -0.00     PERCENT DISCREPANCY =           0.00




         TIME SUMMARY AT END OF TIME STEP    8 IN STRESS PERIOD   28
                    SECONDS     MINUTES      HOURS       DAYS        YEARS
                    -----------------------------------------------------------
   TIME STEP LENGTH 2.59200E+05  4320.0      72.000      3.0000     8.21355E-03
 STRESS PERIOD TIME 2.07360E+06  34560.      576.00      24.000     6.57084E-02
         TOTAL TIME 6.95520E+07 1.15920E+06  19320.      805.00      2.2040    
 UBDSV1 SAVING           STO-SS ON UNIT   1016 AT TIME STEP      9, STRESS PERIOD     28
 UBDSV1 SAVING           STO-SY ON UNIT   1016 AT TIME STEP      9, STRESS PERIOD     28
 UBDSV1 SAVING     FLOW-JA-FACE ON UNIT   1016 AT TIME STEP      9, STRESS PERIOD     28
 UBDSV06 SAVING              RCH IN MODEL TEST_TRANS       PACKAGE TEST_TRANS      CONNECTED TO MODEL TEST_TRANS       PACKAGE RCHA             ON UNIT   1016 AT TIME STEP      9, STRESS PERIOD     28
 UBDSV06 SAVING              CHD IN MODEL TEST_TRANS       PACKAGE TEST_TRANS      CONNECTED TO MODEL TEST_TRANS       PACKAGE CHD              ON UNIT   1016 AT TIME STEP      9, STRESS PERIOD     28

 HEAD WILL BE SAVED ON UNIT 1017 AT END OF TIME STEP    9, STRESS PERIOD   28


  VOLUME BUDGET FOR ENTIRE MODEL AT END OF TIME STEP    9, STRESS PERIOD  28
  ---------------------------------------------------------------------------------------------------

     CUMULATIVE VOLUME      L**3       RATES FOR THIS TIME STEP      L**3/T          PACKAGE NAME    
     ------------------                 ------------------------                     ----------------

           IN:                                      IN:
           ---                                      ---
              STO-SS =          35.3227                STO-SS =       5.5299E-02     STORAGE         
              STO-SY =       22508.2552                STO-SY =          33.9068     STORAGE         
                 RCH =      138532.6570                   RCH =         143.0141     RCHA            
                 CHD =         141.1190                   CHD =           0.0000     CHD             

            TOTAL IN =      161217.3540              TOTAL IN =         176.9762

          OUT:                                     OUT:
          ----                                     ----
              STO-SS =          31.8308                STO-SS =       1.1661E-03     STORAGE         
              STO-SY =       20504.9930                STO-SY =           0.8149     STORAGE         
                 RCH =           0.0000                   RCH =           0.0000     RCHA            
                 CHD =      140681.5516                   CHD =         176.1590     CHD             

           TOTAL OUT =      161218.3754             TOTAL OUT =         176.9751

            IN - OUT =          -1.0215              IN - OUT =       1.0922E-03

 PERCENT DISCREPANCY =          -0.00     PERCENT DISCREPANCY =           0.00




         TIME SUMMARY AT END OF TIME STEP    9 IN STRESS PERIOD   28
                    SECONDS     MINUTES      HOURS       DAYS        YEARS
                    -----------------------------------------------------------
   TIME STEP LENGTH 2.59200E+05  4320.0      72.000      3.0000     8.21355E-03
 STRESS PERIOD TIME 2.33280E+06  38880.      648.00      27.000     7.39220E-02
         TOTAL TIME 6.98112E+07 1.16352E+06  19392.      808.00      2.2122    
 UBDSV1 SAVING           STO-SS ON UNIT   1016 AT TIME STEP     10, STRESS PERIOD     28
 UBDSV1 SAVING           STO-SY ON UNIT   1016 AT TIME STEP     10, STRESS PERIOD     28
 UBDSV1 SAVING     FLOW-JA-FACE ON UNIT   1016 AT TIME STEP     10, STRESS PERIOD     28
 UBDSV06 SAVING              RCH IN MODEL TEST_TRANS       PACKAGE TEST_TRANS      CONNECTED TO MODEL TEST_TRANS       PACKAGE RCHA             ON UNIT   1016 AT TIME STEP     10, STRESS PERIOD     28
 UBDSV06 SAVING              CHD IN MODEL TEST_TRANS       PACKAGE TEST_TRANS      CONNECTED TO MODEL TEST_TRANS       PACKAGE CHD              ON UNIT   1016 AT TIME STEP     10, STRESS PERIOD     28

 HEAD WILL BE SAVED ON UNIT 1017 AT END OF TIME STEP   10, STRESS PERIOD   28


  VOLUME BUDGET FOR ENTIRE MODEL AT END OF TIME STEP   10, STRESS PERIOD  28
  ---------------------------------------------------------------------------------------------------

     CUMULATIVE VOLUME      L**3       RATES FOR THIS TIME STEP      L**3/T          PACKAGE NAME    
     ------------------                 ------------------------                     ----------------

           IN:                                      IN:
           ---                                      ---
              STO-SS =          35.4865                STO-SS =       5.4576E-02     STORAGE         
              STO-SY =       22608.8159                STO-SY =          33.5202     STORAGE         
                 RCH =      138961.6992                   RCH =         143.0141     RCHA            
                 CHD =         141.1190                   CHD =           0.0000     CHD             

            TOTAL IN =      161747.1206              TOTAL IN =         176.5889

          OUT:                                     OUT:
          ----                                     ----
              STO-SS =          31.8318                STO-SS =       3.5023E-04     STORAGE         
              STO-SY =       20505.7343                STO-SY =           0.2471     STORAGE         
                 RCH =           0.0000                   RCH =           0.0000     RCHA            
                 CHD =      141210.5611                   CHD =         176.3365     CHD             

           TOTAL OUT =      161748.1273             TOTAL OUT =         176.5840

            IN - OUT =          -1.0067              IN - OUT =       4.9170E-03

 PERCENT DISCREPANCY =          -0.00     PERCENT DISCREPANCY =           0.00




         TIME SUMMARY AT END OF TIME STEP   10 IN STRESS PERIOD   28
                    SECONDS     MINUTES      HOURS       DAYS        YEARS
                    -----------------------------------------------------------
   TIME STEP LENGTH 2.59200E+05  4320.0      72.000      3.0000     8.21355E-03
 STRESS PERIOD TIME 2.59200E+06  43200.      720.00      30.000     8.21355E-02
         TOTAL TIME 7.00704E+07 1.16784E+06  19464.      811.00      2.2204    

 OUTPUT CONTROL FOR STRESS PERIOD 29 IS REPEATED USING SETTINGS FROM A PREVIOUS STRESS PERIOD.


 STRESS PERIOD 29 IS TRANSIENT


                 RECHARGE =  0.1232880E-02
 UBDSV1 SAVING           STO-SS ON UNIT   1016 AT TIME STEP      1, STRESS PERIOD     29
 UBDSV1 SAVING           STO-SY ON UNIT   1016 AT TIME STEP      1, STRESS PERIOD     29
 UBDSV1 SAVING     FLOW-JA-FACE ON UNIT   1016 AT TIME STEP      1, STRESS PERIOD     29
 UBDSV06 SAVING              RCH IN MODEL TEST_TRANS       PACKAGE TEST_TRANS      CONNECTED TO MODEL TEST_TRANS       PACKAGE RCHA             ON UNIT   1016 AT TIME STEP      1, STRESS PERIOD     29
 UBDSV06 SAVING              CHD IN MODEL TEST_TRANS       PACKAGE TEST_TRANS      CONNECTED TO MODEL TEST_TRANS       PACKAGE CHD              ON UNIT   1016 AT TIME STEP      1, STRESS PERIOD     29

 HEAD WILL BE SAVED ON UNIT 1017 AT END OF TIME STEP    1, STRESS PERIOD   29


  VOLUME BUDGET FOR ENTIRE MODEL AT END OF TIME STEP    1, STRESS PERIOD  29
  ---------------------------------------------------------------------------------------------------

     CUMULATIVE VOLUME      L**3       RATES FOR THIS TIME STEP      L**3/T          PACKAGE NAME    
     ------------------                 ------------------------                     ----------------

           IN:                                      IN:
           ---                                      ---
              STO-SS =          35.7722                STO-SS =       9.5256E-02     STORAGE         
              STO-SY =       22785.0232                STO-SY =          58.7358     STORAGE         
                 RCH =      139283.4809                   RCH =         107.2606     RCHA            
                 CHD =         141.1190                   CHD =           0.0000     CHD             

            TOTAL IN =      162245.3954              TOTAL IN =         166.0916

          OUT:                                     OUT:
          ----                                     ----
              STO-SS =          32.0086                STO-SS =       5.8902E-02     STORAGE         
              STO-SY =       20631.1881                STO-SY =          41.8179     STORAGE         
                 RCH =           0.0000                   RCH =           0.0000     RCHA            
                 CHD =      141583.1993                   CHD =         124.2127     CHD             

           TOTAL OUT =      162246.3960             TOTAL OUT =         166.0895

            IN - OUT =          -1.0006              IN - OUT =       2.0328E-03

 PERCENT DISCREPANCY =          -0.00     PERCENT DISCREPANCY =           0.00




         TIME SUMMARY AT END OF TIME STEP    1 IN STRESS PERIOD   29
                    SECONDS     MINUTES      HOURS       DAYS        YEARS
                    -----------------------------------------------------------
   TIME STEP LENGTH 2.59200E+05  4320.0      72.000      3.0000     8.21355E-03
 STRESS PERIOD TIME 2.59200E+05  4320.0      72.000      3.0000     8.21355E-03
         TOTAL TIME 7.03296E+07 1.17216E+06  19536.      814.00      2.2286    
 UBDSV1 SAVING           STO-SS ON UNIT   1016 AT TIME STEP      2, STRESS PERIOD     29
 UBDSV1 SAVING           STO-SY ON UNIT   1016 AT TIME STEP      2, STRESS PERIOD     29
 UBDSV1 SAVING     FLOW-JA-FACE ON UNIT   1016 AT TIME STEP      2, STRESS PERIOD     29
 UBDSV06 SAVING              RCH IN MODEL TEST_TRANS       PACKAGE TEST_TRANS      CONNECTED TO MODEL TEST_TRANS       PACKAGE RCHA             ON UNIT   1016 AT TIME STEP      2, STRESS PERIOD     29
 UBDSV06 SAVING              CHD IN MODEL TEST_TRANS       PACKAGE TEST_TRANS      CONNECTED TO MODEL TEST_TRANS       PACKAGE CHD              ON UNIT   1016 AT TIME STEP      2, STRESS PERIOD     29

 HEAD WILL BE SAVED ON UNIT 1017 AT END OF TIME STEP    2, STRESS PERIOD   29


  VOLUME BUDGET FOR ENTIRE MODEL AT END OF TIME STEP    2, STRESS PERIOD  29
  ---------------------------------------------------------------------------------------------------

     CUMULATIVE VOLUME      L**3       RATES FOR THIS TIME STEP      L**3/T          PACKAGE NAME    
     ------------------                 ------------------------                     ----------------

           IN:                                      IN:
           ---                                      ---
              STO-SS =          36.0419                STO-SS =       8.9876E-02     STORAGE         
              STO-SY =       22951.0790                STO-SY =          55.3519     STORAGE         
                 RCH =      139605.2626                   RCH =         107.2606     RCHA            
                 CHD =         141.1190                   CHD =           0.0000     CHD             

            TOTAL IN =      162733.5024              TOTAL IN =         162.7024

          OUT:                                     OUT:
          ----                                     ----
              STO-SS =          32.0968                STO-SS =       2.9429E-02     STORAGE         
              STO-SY =       20692.9860                STO-SY =          20.5993     STORAGE         
                 RCH =           0.0000                   RCH =           0.0000     RCHA            
                 CHD =      142009.4061                   CHD =         142.0689     CHD             

           TOTAL OUT =      162734.4889             TOTAL OUT =         162.6976

            IN - OUT =          -0.9864              IN - OUT =       4.7186E-03

 PERCENT DISCREPANCY =          -0.00     PERCENT DISCREPANCY =           0.00




         TIME SUMMARY AT END OF TIME STEP    2 IN STRESS PERIOD   29
                    SECONDS     MINUTES      HOURS       DAYS        YEARS
                    -----------------------------------------------------------
   TIME STEP LENGTH 2.59200E+05  4320.0      72.000      3.0000     8.21355E-03
 STRESS PERIOD TIME 5.18400E+05  8640.0      144.00      6.0000     1.64271E-02
         TOTAL TIME 7.05888E+07 1.17648E+06  19608.      817.00      2.2368    
 UBDSV1 SAVING           STO-SS ON UNIT   1016 AT TIME STEP      3, STRESS PERIOD     29
 UBDSV1 SAVING           STO-SY ON UNIT   1016 AT TIME STEP      3, STRESS PERIOD     29
 UBDSV1 SAVING     FLOW-JA-FACE ON UNIT   1016 AT TIME STEP      3, STRESS PERIOD     29
 UBDSV06 SAVING              RCH IN MODEL TEST_TRANS       PACKAGE TEST_TRANS      CONNECTED TO MODEL TEST_TRANS       PACKAGE RCHA             ON UNIT   1016 AT TIME STEP      3, STRESS PERIOD     29
 UBDSV06 SAVING              CHD IN MODEL TEST_TRANS       PACKAGE TEST_TRANS      CONNECTED TO MODEL TEST_TRANS       PACKAGE CHD              ON UNIT   1016 AT TIME STEP      3, STRESS PERIOD     29

 HEAD WILL BE SAVED ON UNIT 1017 AT END OF TIME STEP    3, STRESS PERIOD   29


  VOLUME BUDGET FOR ENTIRE MODEL AT END OF TIME STEP    3, STRESS PERIOD  29
  ---------------------------------------------------------------------------------------------------

     CUMULATIVE VOLUME      L**3       RATES FOR THIS TIME STEP      L**3/T          PACKAGE NAME    
     ------------------                 ------------------------                     ----------------

           IN:                                      IN:
           ---                                      ---
              STO-SS =          36.2989                STO-SS =       8.5690E-02     STORAGE         
              STO-SY =       23109.3506                STO-SY =          52.7572     STORAGE         
                 RCH =      139927.0443                   RCH =         107.2606     RCHA            
                 CHD =         141.1190                   CHD =           0.0000     CHD             

            TOTAL IN =      163213.8128              TOTAL IN =         160.1034

          OUT:                                     OUT:
          ----                                     ----
              STO-SS =          32.1462                STO-SS =       1.6457E-02     STORAGE         
              STO-SY =       20727.2968                STO-SY =          11.4369     STORAGE         
                 RCH =           0.0000                   RCH =           0.0000     RCHA            
                 CHD =      142455.3521                   CHD =         148.6487     CHD             

           TOTAL OUT =      163214.7950             TOTAL OUT =         160.1021

            IN - OUT =          -0.9823              IN - OUT =       1.3859E-03

 PERCENT DISCREPANCY =          -0.00     PERCENT DISCREPANCY =           0.00




         TIME SUMMARY AT END OF TIME STEP    3 IN STRESS PERIOD   29
                    SECONDS     MINUTES      HOURS       DAYS        YEARS
                    -----------------------------------------------------------
   TIME STEP LENGTH 2.59200E+05  4320.0      72.000      3.0000     8.21355E-03
 STRESS PERIOD TIME 7.77600E+05  12960.      216.00      9.0000     2.46407E-02
         TOTAL TIME 7.08480E+07 1.18080E+06  19680.      820.00      2.2450    
 UBDSV1 SAVING           STO-SS ON UNIT   1016 AT TIME STEP      4, STRESS PERIOD     29
 UBDSV1 SAVING           STO-SY ON UNIT   1016 AT TIME STEP      4, STRESS PERIOD     29
 UBDSV1 SAVING     FLOW-JA-FACE ON UNIT   1016 AT TIME STEP      4, STRESS PERIOD     29
 UBDSV06 SAVING              RCH IN MODEL TEST_TRANS       PACKAGE TEST_TRANS      CONNECTED TO MODEL TEST_TRANS       PACKAGE RCHA             ON UNIT   1016 AT TIME STEP      4, STRESS PERIOD     29
 UBDSV06 SAVING              CHD IN MODEL TEST_TRANS       PACKAGE TEST_TRANS      CONNECTED TO MODEL TEST_TRANS       PACKAGE CHD              ON UNIT   1016 AT TIME STEP      4, STRESS PERIOD     29

 HEAD WILL BE SAVED ON UNIT 1017 AT END OF TIME STEP    4, STRESS PERIOD   29


  VOLUME BUDGET FOR ENTIRE MODEL AT END OF TIME STEP    4, STRESS PERIOD  29
  ---------------------------------------------------------------------------------------------------

     CUMULATIVE VOLUME      L**3       RATES FOR THIS TIME STEP      L**3/T          PACKAGE NAME    
     ------------------                 ------------------------                     ----------------

           IN:                                      IN:
           ---                                      ---
              STO-SS =          36.5463                STO-SS =       8.2452E-02     STORAGE         
              STO-SY =       23261.6849                STO-SY =          50.7781     STORAGE         
                 RCH =      140248.8260                   RCH =         107.2606     RCHA            
                 CHD =         141.1190                   CHD =           0.0000     CHD             

            TOTAL IN =      163688.1761              TOTAL IN =         158.1211

          OUT:                                     OUT:
          ----                                     ----
              STO-SS =          32.1740                STO-SS =       9.2778E-03     STORAGE         
              STO-SY =       20746.5838                STO-SY =           6.4290     STORAGE         
                 RCH =           0.0000                   RCH =           0.0000     RCHA            
                 CHD =      142910.3989                   CHD =         151.6823     CHD             

           TOTAL OUT =      163689.1567             TOTAL OUT =         158.1206

            IN - OUT =          -0.9806              IN - OUT =       5.6079E-04

 PERCENT DISCREPANCY =          -0.00     PERCENT DISCREPANCY =           0.00




         TIME SUMMARY AT END OF TIME STEP    4 IN STRESS PERIOD   29
                    SECONDS     MINUTES      HOURS       DAYS        YEARS
                    -----------------------------------------------------------
   TIME STEP LENGTH 2.59200E+05  4320.0      72.000      3.0000     8.21355E-03
 STRESS PERIOD TIME 1.03680E+06  17280.      288.00      12.000     3.28542E-02
         TOTAL TIME 7.11072E+07 1.18512E+06  19752.      823.00      2.2533    
 UBDSV1 SAVING           STO-SS ON UNIT   1016 AT TIME STEP      5, STRESS PERIOD     29
 UBDSV1 SAVING           STO-SY ON UNIT   1016 AT TIME STEP      5, STRESS PERIOD     29
 UBDSV1 SAVING     FLOW-JA-FACE ON UNIT   1016 AT TIME STEP      5, STRESS PERIOD     29
 UBDSV06 SAVING              RCH IN MODEL TEST_TRANS       PACKAGE TEST_TRANS      CONNECTED TO MODEL TEST_TRANS       PACKAGE RCHA             ON UNIT   1016 AT TIME STEP      5, STRESS PERIOD     29
 UBDSV06 SAVING              CHD IN MODEL TEST_TRANS       PACKAGE TEST_TRANS      CONNECTED TO MODEL TEST_TRANS       PACKAGE CHD              ON UNIT   1016 AT TIME STEP      5, STRESS PERIOD     29

 HEAD WILL BE SAVED ON UNIT 1017 AT END OF TIME STEP    5, STRESS PERIOD   29


  VOLUME BUDGET FOR ENTIRE MODEL AT END OF TIME STEP    5, STRESS PERIOD  29
  ---------------------------------------------------------------------------------------------------

     CUMULATIVE VOLUME      L**3       RATES FOR THIS TIME STEP      L**3/T          PACKAGE NAME    
     ------------------                 ------------------------                     ----------------

           IN:                                      IN:
           ---                                      ---
              STO-SS =          36.7864                STO-SS =       8.0037E-02     STORAGE         
              STO-SY =       23409.6800                STO-SY =          49.3317     STORAGE         
                 RCH =      140570.6076                   RCH =         107.2606     RCHA            
                 CHD =         141.1190                   CHD =           0.0000     CHD             

            TOTAL IN =      164158.1930              TOTAL IN =         156.6723

          OUT:                                     OUT:
          ----                                     ----
              STO-SS =          32.1889                STO-SS =       4.9553E-03     STORAGE         
              STO-SY =       20756.8829                STO-SY =           3.4330     STORAGE         
                 RCH =           0.0000                   RCH =           0.0000     RCHA            
                 CHD =      143370.0983                   CHD =         153.2331     CHD             

           TOTAL OUT =      164159.1701             TOTAL OUT =         156.6711

            IN - OUT =          -0.9771              IN - OUT =       1.1591E-03

 PERCENT DISCREPANCY =          -0.00     PERCENT DISCREPANCY =           0.00




         TIME SUMMARY AT END OF TIME STEP    5 IN STRESS PERIOD   29
                    SECONDS     MINUTES      HOURS       DAYS        YEARS
                    -----------------------------------------------------------
   TIME STEP LENGTH 2.59200E+05  4320.0      72.000      3.0000     8.21355E-03
 STRESS PERIOD TIME 1.29600E+06  21600.      360.00      15.000     4.10678E-02
         TOTAL TIME 7.13664E+07 1.18944E+06  19824.      826.00      2.2615    
 UBDSV1 SAVING           STO-SS ON UNIT   1016 AT TIME STEP      6, STRESS PERIOD     29
 UBDSV1 SAVING           STO-SY ON UNIT   1016 AT TIME STEP      6, STRESS PERIOD     29
 UBDSV1 SAVING     FLOW-JA-FACE ON UNIT   1016 AT TIME STEP      6, STRESS PERIOD     29
 UBDSV06 SAVING              RCH IN MODEL TEST_TRANS       PACKAGE TEST_TRANS      CONNECTED TO MODEL TEST_TRANS       PACKAGE RCHA             ON UNIT   1016 AT TIME STEP      6, STRESS PERIOD     29
 UBDSV06 SAVING              CHD IN MODEL TEST_TRANS       PACKAGE TEST_TRANS      CONNECTED TO MODEL TEST_TRANS       PACKAGE CHD              ON UNIT   1016 AT TIME STEP      6, STRESS PERIOD     29

 HEAD WILL BE SAVED ON UNIT 1017 AT END OF TIME STEP    6, STRESS PERIOD   29


  VOLUME BUDGET FOR ENTIRE MODEL AT END OF TIME STEP    6, STRESS PERIOD  29
  ---------------------------------------------------------------------------------------------------

     CUMULATIVE VOLUME      L**3       RATES FOR THIS TIME STEP      L**3/T          PACKAGE NAME    
     ------------------                 ------------------------                     ----------------

           IN:                                      IN:
           ---                                      ---
              STO-SS =          37.0209                STO-SS =       7.8182E-02     STORAGE         
              STO-SY =       23554.4090                STO-SY =          48.2430     STORAGE         
                 RCH =      140892.3893                   RCH =         107.2606     RCHA            
                 CHD =         141.1190                   CHD =           0.0000     CHD             

            TOTAL IN =      164624.9382              TOTAL IN =         155.5817

          OUT:                                     OUT:
          ----                                     ----
              STO-SS =          32.1956                STO-SS =       2.2306E-03     STORAGE         
              STO-SY =       20761.5346                STO-SY =           1.5506     STORAGE         
                 RCH =           0.0000                   RCH =           0.0000     RCHA            
                 CHD =      143832.1803                   CHD =         154.0273     CHD             

           TOTAL OUT =      164625.9105             TOTAL OUT =         155.5801

            IN - OUT =          -0.9723              IN - OUT =       1.5972E-03

 PERCENT DISCREPANCY =          -0.00     PERCENT DISCREPANCY =           0.00




         TIME SUMMARY AT END OF TIME STEP    6 IN STRESS PERIOD   29
                    SECONDS     MINUTES      HOURS       DAYS        YEARS
                    -----------------------------------------------------------
   TIME STEP LENGTH 2.59200E+05  4320.0      72.000      3.0000     8.21355E-03
 STRESS PERIOD TIME 1.55520E+06  25920.      432.00      18.000     4.92813E-02
         TOTAL TIME 7.16256E+07 1.19376E+06  19896.      829.00      2.2697    
 UBDSV1 SAVING           STO-SS ON UNIT   1016 AT TIME STEP      7, STRESS PERIOD     29
 UBDSV1 SAVING           STO-SY ON UNIT   1016 AT TIME STEP      7, STRESS PERIOD     29
 UBDSV1 SAVING     FLOW-JA-FACE ON UNIT   1016 AT TIME STEP      7, STRESS PERIOD     29
 UBDSV06 SAVING              RCH IN MODEL TEST_TRANS       PACKAGE TEST_TRANS      CONNECTED TO MODEL TEST_TRANS       PACKAGE RCHA             ON UNIT   1016 AT TIME STEP      7, STRESS PERIOD     29
 UBDSV06 SAVING              CHD IN MODEL TEST_TRANS       PACKAGE TEST_TRANS      CONNECTED TO MODEL TEST_TRANS       PACKAGE CHD              ON UNIT   1016 AT TIME STEP      7, STRESS PERIOD     29

 HEAD WILL BE SAVED ON UNIT 1017 AT END OF TIME STEP    7, STRESS PERIOD   29


  VOLUME BUDGET FOR ENTIRE MODEL AT END OF TIME STEP    7, STRESS PERIOD  29
  ---------------------------------------------------------------------------------------------------

     CUMULATIVE VOLUME      L**3       RATES FOR THIS TIME STEP      L**3/T          PACKAGE NAME    
     ------------------                 ------------------------                     ----------------

           IN:                                      IN:
           ---                                      ---
              STO-SS =          37.2517                STO-SS =       7.6929E-02     STORAGE         
              STO-SY =       23697.0438                STO-SY =          47.5449     STORAGE         
                 RCH =      141214.1710                   RCH =         107.2606     RCHA            
                 CHD =         141.1190                   CHD =           0.0000     CHD             

            TOTAL IN =      165089.5855              TOTAL IN =         154.8824

          OUT:                                     OUT:
          ----                                     ----
              STO-SS =          32.1977                STO-SS =       7.1224E-04     STORAGE         
              STO-SY =       20763.0296                STO-SY =           0.4983     STORAGE         
                 RCH =           0.0000                   RCH =           0.0000     RCHA            
                 CHD =      144295.3249                   CHD =         154.3815     CHD             

           TOTAL OUT =      165090.5522             TOTAL OUT =         154.8805

            IN - OUT =          -0.9667              IN - OUT =       1.8955E-03

 PERCENT DISCREPANCY =          -0.00     PERCENT DISCREPANCY =           0.00




         TIME SUMMARY AT END OF TIME STEP    7 IN STRESS PERIOD   29
                    SECONDS     MINUTES      HOURS       DAYS        YEARS
                    -----------------------------------------------------------
   TIME STEP LENGTH 2.59200E+05  4320.0      72.000      3.0000     8.21355E-03
 STRESS PERIOD TIME 1.81440E+06  30240.      504.00      21.000     5.74949E-02
         TOTAL TIME 7.18848E+07 1.19808E+06  19968.      832.00      2.2779    
 UBDSV1 SAVING           STO-SS ON UNIT   1016 AT TIME STEP      8, STRESS PERIOD     29
 UBDSV1 SAVING           STO-SY ON UNIT   1016 AT TIME STEP      8, STRESS PERIOD     29
 UBDSV1 SAVING     FLOW-JA-FACE ON UNIT   1016 AT TIME STEP      8, STRESS PERIOD     29
 UBDSV06 SAVING              RCH IN MODEL TEST_TRANS       PACKAGE TEST_TRANS      CONNECTED TO MODEL TEST_TRANS       PACKAGE RCHA             ON UNIT   1016 AT TIME STEP      8, STRESS PERIOD     29
 UBDSV06 SAVING              CHD IN MODEL TEST_TRANS       PACKAGE TEST_TRANS      CONNECTED TO MODEL TEST_TRANS       PACKAGE CHD              ON UNIT   1016 AT TIME STEP      8, STRESS PERIOD     29

 HEAD WILL BE SAVED ON UNIT 1017 AT END OF TIME STEP    8, STRESS PERIOD   29


  VOLUME BUDGET FOR ENTIRE MODEL AT END OF TIME STEP    8, STRESS PERIOD  29
  ---------------------------------------------------------------------------------------------------

     CUMULATIVE VOLUME      L**3       RATES FOR THIS TIME STEP      L**3/T          PACKAGE NAME    
     ------------------                 ------------------------                     ----------------

           IN:                                      IN:
           ---                                      ---
              STO-SS =          37.4802                STO-SS =       7.6160E-02     STORAGE         
              STO-SY =       23838.5351                STO-SY =          47.1638     STORAGE         
                 RCH =      141535.9527                   RCH =         107.2606     RCHA            
                 CHD =         141.1190                   CHD =           0.0000     CHD             

            TOTAL IN =      165553.0870              TOTAL IN =         154.5005

          OUT:                                     OUT:
          ----                                     ----
              STO-SS =          32.1979                STO-SS =       5.8658E-05     STORAGE         
              STO-SY =       20763.1544                STO-SY =       4.1606E-02     STORAGE         
                 RCH =           0.0000                   RCH =           0.0000     RCHA            
                 CHD =      144758.6951                   CHD =         154.4567     CHD             

           TOTAL OUT =      165554.0474             TOTAL OUT =         154.4984

            IN - OUT =          -0.9604              IN - OUT =       2.0783E-03

 PERCENT DISCREPANCY =          -0.00     PERCENT DISCREPANCY =           0.00




         TIME SUMMARY AT END OF TIME STEP    8 IN STRESS PERIOD   29
                    SECONDS     MINUTES      HOURS       DAYS        YEARS
                    -----------------------------------------------------------
   TIME STEP LENGTH 2.59200E+05  4320.0      72.000      3.0000     8.21355E-03
 STRESS PERIOD TIME 2.07360E+06  34560.      576.00      24.000     6.57084E-02
         TOTAL TIME 7.21440E+07 1.20240E+06  20040.      835.00      2.2861    
 UBDSV1 SAVING           STO-SS ON UNIT   1016 AT TIME STEP      9, STRESS PERIOD     29
 UBDSV1 SAVING           STO-SY ON UNIT   1016 AT TIME STEP      9, STRESS PERIOD     29
 UBDSV1 SAVING     FLOW-JA-FACE ON UNIT   1016 AT TIME STEP      9, STRESS PERIOD     29
 UBDSV06 SAVING              RCH IN MODEL TEST_TRANS       PACKAGE TEST_TRANS      CONNECTED TO MODEL TEST_TRANS       PACKAGE RCHA             ON UNIT   1016 AT TIME STEP      9, STRESS PERIOD     29
 UBDSV06 SAVING              CHD IN MODEL TEST_TRANS       PACKAGE TEST_TRANS      CONNECTED TO MODEL TEST_TRANS       PACKAGE CHD              ON UNIT   1016 AT TIME STEP      9, STRESS PERIOD     29

 HEAD WILL BE SAVED ON UNIT 1017 AT END OF TIME STEP    9, STRESS PERIOD   29


  VOLUME BUDGET FOR ENTIRE MODEL AT END OF TIME STEP    9, STRESS PERIOD  29
  ---------------------------------------------------------------------------------------------------

     CUMULATIVE VOLUME      L**3       RATES FOR THIS TIME STEP      L**3/T          PACKAGE NAME    
     ------------------                 ------------------------                     ----------------

           IN:                                      IN:
           ---                                      ---
              STO-SS =          37.7074                STO-SS =       7.5730E-02     STORAGE         
              STO-SY =       23979.5665                STO-SY =          47.0105     STORAGE         
                 RCH =      141857.7344                   RCH =         107.2606     RCHA            
                 CHD =         141.1190                   CHD =           0.0000     CHD             

            TOTAL IN =      166016.1272              TOTAL IN =         154.3467

          OUT:                                     OUT:
          ----                                     ----
              STO-SS =          32.1979                STO-SS =           0.0000     STORAGE         
              STO-SY =       20763.1544                STO-SY =           0.0000     STORAGE         
                 RCH =           0.0000                   RCH =           0.0000     RCHA            
                 CHD =      145221.7287                   CHD =         154.3445     CHD             

           TOTAL OUT =      166017.0810             TOTAL OUT =         154.3445

            IN - OUT =          -0.9538              IN - OUT =       2.2067E-03

 PERCENT DISCREPANCY =          -0.00     PERCENT DISCREPANCY =           0.00




         TIME SUMMARY AT END OF TIME STEP    9 IN STRESS PERIOD   29
                    SECONDS     MINUTES      HOURS       DAYS        YEARS
                    -----------------------------------------------------------
   TIME STEP LENGTH 2.59200E+05  4320.0      72.000      3.0000     8.21355E-03
 STRESS PERIOD TIME 2.33280E+06  38880.      648.00      27.000     7.39220E-02
         TOTAL TIME 7.24032E+07 1.20672E+06  20112.      838.00      2.2943    
 UBDSV1 SAVING           STO-SS ON UNIT   1016 AT TIME STEP     10, STRESS PERIOD     29
 UBDSV1 SAVING           STO-SY ON UNIT   1016 AT TIME STEP     10, STRESS PERIOD     29
 UBDSV1 SAVING     FLOW-JA-FACE ON UNIT   1016 AT TIME STEP     10, STRESS PERIOD     29
 UBDSV06 SAVING              RCH IN MODEL TEST_TRANS       PACKAGE TEST_TRANS      CONNECTED TO MODEL TEST_TRANS       PACKAGE RCHA             ON UNIT   1016 AT TIME STEP     10, STRESS PERIOD     29
 UBDSV06 SAVING              CHD IN MODEL TEST_TRANS       PACKAGE TEST_TRANS      CONNECTED TO MODEL TEST_TRANS       PACKAGE CHD              ON UNIT   1016 AT TIME STEP     10, STRESS PERIOD     29

 HEAD WILL BE SAVED ON UNIT 1017 AT END OF TIME STEP   10, STRESS PERIOD   29


  VOLUME BUDGET FOR ENTIRE MODEL AT END OF TIME STEP   10, STRESS PERIOD  29
  ---------------------------------------------------------------------------------------------------

     CUMULATIVE VOLUME      L**3       RATES FOR THIS TIME STEP      L**3/T          PACKAGE NAME    
     ------------------                 ------------------------                     ----------------

           IN:                                      IN:
           ---                                      ---
              STO-SS =          37.9329                STO-SS =       7.5181E-02     STORAGE         
              STO-SY =       24119.8694                STO-SY =          46.7677     STORAGE         
                 RCH =      142179.5160                   RCH =         107.2606     RCHA            
                 CHD =         141.1190                   CHD =           0.0000     CHD             

            TOTAL IN =      166478.4374              TOTAL IN =         154.1034

          OUT:                                     OUT:
          ----                                     ----
              STO-SS =          32.1979                STO-SS =           0.0000     STORAGE         
              STO-SY =       20763.1544                STO-SY =           0.0000     STORAGE         
                 RCH =           0.0000                   RCH =           0.0000     RCHA            
                 CHD =      145684.0320                   CHD =         154.1011     CHD             

           TOTAL OUT =      166479.3843             TOTAL OUT =         154.1011

            IN - OUT =          -0.9469              IN - OUT =       2.2931E-03

 PERCENT DISCREPANCY =          -0.00     PERCENT DISCREPANCY =           0.00




         TIME SUMMARY AT END OF TIME STEP   10 IN STRESS PERIOD   29
                    SECONDS     MINUTES      HOURS       DAYS        YEARS
                    -----------------------------------------------------------
   TIME STEP LENGTH 2.59200E+05  4320.0      72.000      3.0000     8.21355E-03
 STRESS PERIOD TIME 2.59200E+06  43200.      720.00      30.000     8.21355E-02
         TOTAL TIME 7.26624E+07 1.21104E+06  20184.      841.00      2.3025    

 OUTPUT CONTROL FOR STRESS PERIOD 30 IS REPEATED USING SETTINGS FROM A PREVIOUS STRESS PERIOD.


 STRESS PERIOD 30 IS TRANSIENT


                 RECHARGE =  0.8219178E-03
 UBDSV1 SAVING           STO-SS ON UNIT   1016 AT TIME STEP      1, STRESS PERIOD     30
 UBDSV1 SAVING           STO-SY ON UNIT   1016 AT TIME STEP      1, STRESS PERIOD     30
 UBDSV1 SAVING     FLOW-JA-FACE ON UNIT   1016 AT TIME STEP      1, STRESS PERIOD     30
 UBDSV06 SAVING              RCH IN MODEL TEST_TRANS       PACKAGE TEST_TRANS      CONNECTED TO MODEL TEST_TRANS       PACKAGE RCHA             ON UNIT   1016 AT TIME STEP      1, STRESS PERIOD     30
 UBDSV06 SAVING              CHD IN MODEL TEST_TRANS       PACKAGE TEST_TRANS      CONNECTED TO MODEL TEST_TRANS       PACKAGE CHD              ON UNIT   1016 AT TIME STEP      1, STRESS PERIOD     30

 HEAD WILL BE SAVED ON UNIT 1017 AT END OF TIME STEP    1, STRESS PERIOD   30


  VOLUME BUDGET FOR ENTIRE MODEL AT END OF TIME STEP    1, STRESS PERIOD  30
  ---------------------------------------------------------------------------------------------------

     CUMULATIVE VOLUME      L**3       RATES FOR THIS TIME STEP      L**3/T          PACKAGE NAME    
     ------------------                 ------------------------                     ----------------

           IN:                                      IN:
           ---                                      ---
              STO-SS =          38.2640                STO-SS =           0.1104     STORAGE         
              STO-SY =       24325.4482                STO-SY =          68.5262     STORAGE         
                 RCH =      142394.0366                   RCH =          71.5068     RCHA            
                 CHD =         141.1190                   CHD =           0.0000     CHD             

            TOTAL IN =      166898.8678              TOTAL IN =         140.1435

          OUT:                                     OUT:
          ----                                     ----
              STO-SS =          32.5026                STO-SS =           0.1016     STORAGE         
              STO-SY =       20976.9427                STO-SY =          71.2628     STORAGE         
                 RCH =           0.0000                   RCH =           0.0000     RCHA            
                 CHD =      145890.3646                   CHD =          68.7775     CHD             

           TOTAL OUT =      166899.8099             TOTAL OUT =         140.1419

            IN - OUT =          -0.9421              IN - OUT =       1.6148E-03

 PERCENT DISCREPANCY =          -0.00     PERCENT DISCREPANCY =           0.00




         TIME SUMMARY AT END OF TIME STEP    1 IN STRESS PERIOD   30
                    SECONDS     MINUTES      HOURS       DAYS        YEARS
                    -----------------------------------------------------------
   TIME STEP LENGTH 2.59200E+05  4320.0      72.000      3.0000     8.21355E-03
 STRESS PERIOD TIME 2.59200E+05  4320.0      72.000      3.0000     8.21355E-03
         TOTAL TIME 7.29216E+07 1.21536E+06  20256.      844.00      2.3107    
 UBDSV1 SAVING           STO-SS ON UNIT   1016 AT TIME STEP      2, STRESS PERIOD     30
 UBDSV1 SAVING           STO-SY ON UNIT   1016 AT TIME STEP      2, STRESS PERIOD     30
 UBDSV1 SAVING     FLOW-JA-FACE ON UNIT   1016 AT TIME STEP      2, STRESS PERIOD     30
 UBDSV06 SAVING              RCH IN MODEL TEST_TRANS       PACKAGE TEST_TRANS      CONNECTED TO MODEL TEST_TRANS       PACKAGE RCHA             ON UNIT   1016 AT TIME STEP      2, STRESS PERIOD     30
 UBDSV06 SAVING              CHD IN MODEL TEST_TRANS       PACKAGE TEST_TRANS      CONNECTED TO MODEL TEST_TRANS       PACKAGE CHD              ON UNIT   1016 AT TIME STEP      2, STRESS PERIOD     30

 HEAD WILL BE SAVED ON UNIT 1017 AT END OF TIME STEP    2, STRESS PERIOD   30


  VOLUME BUDGET FOR ENTIRE MODEL AT END OF TIME STEP    2, STRESS PERIOD  30
  ---------------------------------------------------------------------------------------------------

     CUMULATIVE VOLUME      L**3       RATES FOR THIS TIME STEP      L**3/T          PACKAGE NAME    
     ------------------                 ------------------------                     ----------------

           IN:                                      IN:
           ---                                      ---
              STO-SS =          38.5729                STO-SS =           0.1029     STORAGE         
              STO-SY =       24516.9456                STO-SY =          63.8325     STORAGE         
                 RCH =      142608.5571                   RCH =          71.5068     RCHA            
                 CHD =         141.1190                   CHD =           0.0000     CHD             

            TOTAL IN =      167305.1946              TOTAL IN =         135.4423

          OUT:                                     OUT:
          ----                                     ----
              STO-SS =          32.6602                STO-SS =       5.2546E-02     STORAGE         
              STO-SY =       21085.9575                STO-SY =          36.3383     STORAGE         
                 RCH =           0.0000                   RCH =           0.0000     RCHA            
                 CHD =      146187.5097                   CHD =          99.0484     CHD             

           TOTAL OUT =      167306.1274             TOTAL OUT =         135.4392

            IN - OUT =          -0.9328              IN - OUT =       3.0818E-03

 PERCENT DISCREPANCY =          -0.00     PERCENT DISCREPANCY =           0.00




         TIME SUMMARY AT END OF TIME STEP    2 IN STRESS PERIOD   30
                    SECONDS     MINUTES      HOURS       DAYS        YEARS
                    -----------------------------------------------------------
   TIME STEP LENGTH 2.59200E+05  4320.0      72.000      3.0000     8.21355E-03
 STRESS PERIOD TIME 5.18400E+05  8640.0      144.00      6.0000     1.64271E-02
         TOTAL TIME 7.31808E+07 1.21968E+06  20328.      847.00      2.3190    
 UBDSV1 SAVING           STO-SS ON UNIT   1016 AT TIME STEP      3, STRESS PERIOD     30
 UBDSV1 SAVING           STO-SY ON UNIT   1016 AT TIME STEP      3, STRESS PERIOD     30
 UBDSV1 SAVING     FLOW-JA-FACE ON UNIT   1016 AT TIME STEP      3, STRESS PERIOD     30
 UBDSV06 SAVING              RCH IN MODEL TEST_TRANS       PACKAGE TEST_TRANS      CONNECTED TO MODEL TEST_TRANS       PACKAGE RCHA             ON UNIT   1016 AT TIME STEP      3, STRESS PERIOD     30
 UBDSV06 SAVING              CHD IN MODEL TEST_TRANS       PACKAGE TEST_TRANS      CONNECTED TO MODEL TEST_TRANS       PACKAGE CHD              ON UNIT   1016 AT TIME STEP      3, STRESS PERIOD     30

 HEAD WILL BE SAVED ON UNIT 1017 AT END OF TIME STEP    3, STRESS PERIOD   30


  VOLUME BUDGET FOR ENTIRE MODEL AT END OF TIME STEP    3, STRESS PERIOD  30
  ---------------------------------------------------------------------------------------------------

     CUMULATIVE VOLUME      L**3       RATES FOR THIS TIME STEP      L**3/T          PACKAGE NAME    
     ------------------                 ------------------------                     ----------------

           IN:                                      IN:
           ---                                      ---
              STO-SS =          38.8643                STO-SS =       9.7139E-02     STORAGE         
              STO-SY =       24697.5604                STO-SY =          60.2050     STORAGE         
                 RCH =      142823.0777                   RCH =          71.5068     RCHA            
                 CHD =         141.1190                   CHD =           0.0000     CHD             

            TOTAL IN =      167700.6214              TOTAL IN =         131.8089

          OUT:                                     OUT:
          ----                                     ----
              STO-SS =          32.7543                STO-SS =       3.1372E-02     STORAGE         
              STO-SY =       21150.5628                STO-SY =          21.5351     STORAGE         
                 RCH =           0.0000                   RCH =           0.0000     RCHA            
                 CHD =      146518.2353                   CHD =         110.2419     CHD             

           TOTAL OUT =      167701.5524             TOTAL OUT =         131.8083

            IN - OUT =          -0.9310              IN - OUT =       6.1228E-04

 PERCENT DISCREPANCY =          -0.00     PERCENT DISCREPANCY =           0.00




         TIME SUMMARY AT END OF TIME STEP    3 IN STRESS PERIOD   30
                    SECONDS     MINUTES      HOURS       DAYS        YEARS
                    -----------------------------------------------------------
   TIME STEP LENGTH 2.59200E+05  4320.0      72.000      3.0000     8.21355E-03
 STRESS PERIOD TIME 7.77600E+05  12960.      216.00      9.0000     2.46407E-02
         TOTAL TIME 7.34400E+07 1.22400E+06  20400.      850.00      2.3272    
 UBDSV1 SAVING           STO-SS ON UNIT   1016 AT TIME STEP      4, STRESS PERIOD     30
 UBDSV1 SAVING           STO-SY ON UNIT   1016 AT TIME STEP      4, STRESS PERIOD     30
 UBDSV1 SAVING     FLOW-JA-FACE ON UNIT   1016 AT TIME STEP      4, STRESS PERIOD     30
 UBDSV06 SAVING              RCH IN MODEL TEST_TRANS       PACKAGE TEST_TRANS      CONNECTED TO MODEL TEST_TRANS       PACKAGE RCHA             ON UNIT   1016 AT TIME STEP      4, STRESS PERIOD     30
 UBDSV06 SAVING              CHD IN MODEL TEST_TRANS       PACKAGE TEST_TRANS      CONNECTED TO MODEL TEST_TRANS       PACKAGE CHD              ON UNIT   1016 AT TIME STEP      4, STRESS PERIOD     30

 HEAD WILL BE SAVED ON UNIT 1017 AT END OF TIME STEP    4, STRESS PERIOD   30


  VOLUME BUDGET FOR ENTIRE MODEL AT END OF TIME STEP    4, STRESS PERIOD  30
  ---------------------------------------------------------------------------------------------------

     CUMULATIVE VOLUME      L**3       RATES FOR THIS TIME STEP      L**3/T          PACKAGE NAME    
     ------------------                 ------------------------                     ----------------

           IN:                                      IN:
           ---                                      ---
              STO-SS =          39.1423                STO-SS =       9.2666E-02     STORAGE         
              STO-SY =       24869.8978                STO-SY =          57.4458     STORAGE         
                 RCH =      143037.5982                   RCH =          71.5068     RCHA            
                 CHD =         141.1190                   CHD =           0.0000     CHD             

            TOTAL IN =      168087.7573              TOTAL IN =         129.0453

          OUT:                                     OUT:
          ----                                     ----
              STO-SS =          32.8133                STO-SS =       1.9655E-02     STORAGE         
              STO-SY =       21190.8722                STO-SY =          13.4365     STORAGE         
                 RCH =           0.0000                   RCH =           0.0000     RCHA            
                 CHD =      146865.0023                   CHD =         115.5890     CHD             

           TOTAL OUT =      168088.6878             TOTAL OUT =         129.0451

            IN - OUT =          -0.9305              IN - OUT =       1.5370E-04

 PERCENT DISCREPANCY =          -0.00     PERCENT DISCREPANCY =           0.00




         TIME SUMMARY AT END OF TIME STEP    4 IN STRESS PERIOD   30
                    SECONDS     MINUTES      HOURS       DAYS        YEARS
                    -----------------------------------------------------------
   TIME STEP LENGTH 2.59200E+05  4320.0      72.000      3.0000     8.21355E-03
 STRESS PERIOD TIME 1.03680E+06  17280.      288.00      12.000     3.28542E-02
         TOTAL TIME 7.36992E+07 1.22832E+06  20472.      853.00      2.3354    
 UBDSV1 SAVING           STO-SS ON UNIT   1016 AT TIME STEP      5, STRESS PERIOD     30
 UBDSV1 SAVING           STO-SY ON UNIT   1016 AT TIME STEP      5, STRESS PERIOD     30
 UBDSV1 SAVING     FLOW-JA-FACE ON UNIT   1016 AT TIME STEP      5, STRESS PERIOD     30
 UBDSV06 SAVING              RCH IN MODEL TEST_TRANS       PACKAGE TEST_TRANS      CONNECTED TO MODEL TEST_TRANS       PACKAGE RCHA             ON UNIT   1016 AT TIME STEP      5, STRESS PERIOD     30
 UBDSV06 SAVING              CHD IN MODEL TEST_TRANS       PACKAGE TEST_TRANS      CONNECTED TO MODEL TEST_TRANS       PACKAGE CHD              ON UNIT   1016 AT TIME STEP      5, STRESS PERIOD     30

 HEAD WILL BE SAVED ON UNIT 1017 AT END OF TIME STEP    5, STRESS PERIOD   30


  VOLUME BUDGET FOR ENTIRE MODEL AT END OF TIME STEP    5, STRESS PERIOD  30
  ---------------------------------------------------------------------------------------------------

     CUMULATIVE VOLUME      L**3       RATES FOR THIS TIME STEP      L**3/T          PACKAGE NAME    
     ------------------                 ------------------------                     ----------------

           IN:                                      IN:
           ---                                      ---
              STO-SS =          39.4094                STO-SS =       8.9021E-02     STORAGE         
              STO-SY =       25035.5509                STO-SY =          55.2177     STORAGE         
                 RCH =      143252.1188                   RCH =          71.5068     RCHA            
                 CHD =         141.1190                   CHD =           0.0000     CHD             

            TOTAL IN =      168468.1980              TOTAL IN =         126.8136

          OUT:                                     OUT:
          ----                                     ----
              STO-SS =          32.8497                STO-SS =       1.2131E-02     STORAGE         
              STO-SY =       21215.7121                STO-SY =           8.2800     STORAGE         
                 RCH =           0.0000                   RCH =           0.0000     RCHA            
                 CHD =      147220.5671                   CHD =         118.5216     CHD             

           TOTAL OUT =      168469.1289             TOTAL OUT =         126.8137

            IN - OUT =          -0.9309              IN - OUT =      -1.0999E-04

 PERCENT DISCREPANCY =          -0.00     PERCENT DISCREPANCY =          -0.00




         TIME SUMMARY AT END OF TIME STEP    5 IN STRESS PERIOD   30
                    SECONDS     MINUTES      HOURS       DAYS        YEARS
                    -----------------------------------------------------------
   TIME STEP LENGTH 2.59200E+05  4320.0      72.000      3.0000     8.21355E-03
 STRESS PERIOD TIME 1.29600E+06  21600.      360.00      15.000     4.10678E-02
         TOTAL TIME 7.39584E+07 1.23264E+06  20544.      856.00      2.3436    
 UBDSV1 SAVING           STO-SS ON UNIT   1016 AT TIME STEP      6, STRESS PERIOD     30
 UBDSV1 SAVING           STO-SY ON UNIT   1016 AT TIME STEP      6, STRESS PERIOD     30
 UBDSV1 SAVING     FLOW-JA-FACE ON UNIT   1016 AT TIME STEP      6, STRESS PERIOD     30
 UBDSV06 SAVING              RCH IN MODEL TEST_TRANS       PACKAGE TEST_TRANS      CONNECTED TO MODEL TEST_TRANS       PACKAGE RCHA             ON UNIT   1016 AT TIME STEP      6, STRESS PERIOD     30
 UBDSV06 SAVING              CHD IN MODEL TEST_TRANS       PACKAGE TEST_TRANS      CONNECTED TO MODEL TEST_TRANS       PACKAGE CHD              ON UNIT   1016 AT TIME STEP      6, STRESS PERIOD     30

 HEAD WILL BE SAVED ON UNIT 1017 AT END OF TIME STEP    6, STRESS PERIOD   30


  VOLUME BUDGET FOR ENTIRE MODEL AT END OF TIME STEP    6, STRESS PERIOD  30
  ---------------------------------------------------------------------------------------------------

     CUMULATIVE VOLUME      L**3       RATES FOR THIS TIME STEP      L**3/T          PACKAGE NAME    
     ------------------                 ------------------------                     ----------------

           IN:                                      IN:
           ---                                      ---
              STO-SS =          39.6680                STO-SS =       8.6207E-02     STORAGE         
              STO-SY =       25196.1142                STO-SY =          53.5211     STORAGE         
                 RCH =      143466.6393                   RCH =          71.5068     RCHA            
                 CHD =         141.1190                   CHD =           0.0000     CHD             

            TOTAL IN =      168843.5405              TOTAL IN =         125.1141

          OUT:                                     OUT:
          ----                                     ----
              STO-SS =          32.8711                STO-SS =       7.1485E-03     STORAGE         
              STO-SY =       21230.3502                STO-SY =           4.8794     STORAGE         
                 RCH =           0.0000                   RCH =           0.0000     RCHA            
                 CHD =      147581.2483                   CHD =         120.2271     CHD             

           TOTAL OUT =      168844.4697             TOTAL OUT =         125.1136

            IN - OUT =          -0.9292              IN - OUT =       5.6479E-04

 PERCENT DISCREPANCY =          -0.00     PERCENT DISCREPANCY =           0.00




         TIME SUMMARY AT END OF TIME STEP    6 IN STRESS PERIOD   30
                    SECONDS     MINUTES      HOURS       DAYS        YEARS
                    -----------------------------------------------------------
   TIME STEP LENGTH 2.59200E+05  4320.0      72.000      3.0000     8.21355E-03
 STRESS PERIOD TIME 1.55520E+06  25920.      432.00      18.000     4.92813E-02
         TOTAL TIME 7.42176E+07 1.23696E+06  20616.      859.00      2.3518    
 UBDSV1 SAVING           STO-SS ON UNIT   1016 AT TIME STEP      7, STRESS PERIOD     30
 UBDSV1 SAVING           STO-SY ON UNIT   1016 AT TIME STEP      7, STRESS PERIOD     30
 UBDSV1 SAVING     FLOW-JA-FACE ON UNIT   1016 AT TIME STEP      7, STRESS PERIOD     30
 UBDSV06 SAVING              RCH IN MODEL TEST_TRANS       PACKAGE TEST_TRANS      CONNECTED TO MODEL TEST_TRANS       PACKAGE RCHA             ON UNIT   1016 AT TIME STEP      7, STRESS PERIOD     30
 UBDSV06 SAVING              CHD IN MODEL TEST_TRANS       PACKAGE TEST_TRANS      CONNECTED TO MODEL TEST_TRANS       PACKAGE CHD              ON UNIT   1016 AT TIME STEP      7, STRESS PERIOD     30

 HEAD WILL BE SAVED ON UNIT 1017 AT END OF TIME STEP    7, STRESS PERIOD   30


  VOLUME BUDGET FOR ENTIRE MODEL AT END OF TIME STEP    7, STRESS PERIOD  30
  ---------------------------------------------------------------------------------------------------

     CUMULATIVE VOLUME      L**3       RATES FOR THIS TIME STEP      L**3/T          PACKAGE NAME    
     ------------------                 ------------------------                     ----------------

           IN:                                      IN:
           ---                                      ---
              STO-SS =          39.9200                STO-SS =       8.3993E-02     STORAGE         
              STO-SY =       25352.7339                STO-SY =          52.2066     STORAGE         
                 RCH =      143681.1599                   RCH =          71.5068     RCHA            
                 CHD =         141.1190                   CHD =           0.0000     CHD             

            TOTAL IN =      169214.9327              TOTAL IN =         123.7974

          OUT:                                     OUT:
          ----                                     ----
              STO-SS =          32.8824                STO-SS =       3.7610E-03     STORAGE         
              STO-SY =       21238.0684                STO-SY =           2.5727     STORAGE         
                 RCH =           0.0000                   RCH =           0.0000     RCHA            
                 CHD =      147944.9080                   CHD =         121.2199     CHD             

           TOTAL OUT =      169215.8589             TOTAL OUT =         123.7964

            IN - OUT =          -0.9261              IN - OUT =       1.0209E-03

 PERCENT DISCREPANCY =          -0.00     PERCENT DISCREPANCY =           0.00




         TIME SUMMARY AT END OF TIME STEP    7 IN STRESS PERIOD   30
                    SECONDS     MINUTES      HOURS       DAYS        YEARS
                    -----------------------------------------------------------
   TIME STEP LENGTH 2.59200E+05  4320.0      72.000      3.0000     8.21355E-03
 STRESS PERIOD TIME 1.81440E+06  30240.      504.00      21.000     5.74949E-02
         TOTAL TIME 7.44768E+07 1.24128E+06  20688.      862.00      2.3600    
 UBDSV1 SAVING           STO-SS ON UNIT   1016 AT TIME STEP      8, STRESS PERIOD     30
 UBDSV1 SAVING           STO-SY ON UNIT   1016 AT TIME STEP      8, STRESS PERIOD     30
 UBDSV1 SAVING     FLOW-JA-FACE ON UNIT   1016 AT TIME STEP      8, STRESS PERIOD     30
 UBDSV06 SAVING              RCH IN MODEL TEST_TRANS       PACKAGE TEST_TRANS      CONNECTED TO MODEL TEST_TRANS       PACKAGE RCHA             ON UNIT   1016 AT TIME STEP      8, STRESS PERIOD     30
 UBDSV06 SAVING              CHD IN MODEL TEST_TRANS       PACKAGE TEST_TRANS      CONNECTED TO MODEL TEST_TRANS       PACKAGE CHD              ON UNIT   1016 AT TIME STEP      8, STRESS PERIOD     30

 HEAD WILL BE SAVED ON UNIT 1017 AT END OF TIME STEP    8, STRESS PERIOD   30


  VOLUME BUDGET FOR ENTIRE MODEL AT END OF TIME STEP    8, STRESS PERIOD  30
  ---------------------------------------------------------------------------------------------------

     CUMULATIVE VOLUME      L**3       RATES FOR THIS TIME STEP      L**3/T          PACKAGE NAME    
     ------------------                 ------------------------                     ----------------

           IN:                                      IN:
           ---                                      ---
              STO-SS =          40.1672                STO-SS =       8.2404E-02     STORAGE         
              STO-SY =       25506.6112                STO-SY =          51.2924     STORAGE         
                 RCH =      143895.6804                   RCH =          71.5068     RCHA            
                 CHD =         141.1190                   CHD =           0.0000     CHD             

            TOTAL IN =      169583.5778              TOTAL IN =         122.8817

          OUT:                                     OUT:
          ----                                     ----
              STO-SS =          32.8873                STO-SS =       1.6280E-03     STORAGE         
              STO-SY =       21241.4226                STO-SY =           1.1181     STORAGE         
                 RCH =           0.0000                   RCH =           0.0000     RCHA            
                 CHD =      148310.1900                   CHD =         121.7607     CHD             

           TOTAL OUT =      169584.4999             TOTAL OUT =         122.8804

            IN - OUT =          -0.9221              IN - OUT =       1.3321E-03

 PERCENT DISCREPANCY =          -0.00     PERCENT DISCREPANCY =           0.00




         TIME SUMMARY AT END OF TIME STEP    8 IN STRESS PERIOD   30
                    SECONDS     MINUTES      HOURS       DAYS        YEARS
                    -----------------------------------------------------------
   TIME STEP LENGTH 2.59200E+05  4320.0      72.000      3.0000     8.21355E-03
 STRESS PERIOD TIME 2.07360E+06  34560.      576.00      24.000     6.57084E-02
         TOTAL TIME 7.47360E+07 1.24560E+06  20760.      865.00      2.3682    
 UBDSV1 SAVING           STO-SS ON UNIT   1016 AT TIME STEP      9, STRESS PERIOD     30
 UBDSV1 SAVING           STO-SY ON UNIT   1016 AT TIME STEP      9, STRESS PERIOD     30
 UBDSV1 SAVING     FLOW-JA-FACE ON UNIT   1016 AT TIME STEP      9, STRESS PERIOD     30
 UBDSV06 SAVING              RCH IN MODEL TEST_TRANS       PACKAGE TEST_TRANS      CONNECTED TO MODEL TEST_TRANS       PACKAGE RCHA             ON UNIT   1016 AT TIME STEP      9, STRESS PERIOD     30
 UBDSV06 SAVING              CHD IN MODEL TEST_TRANS       PACKAGE TEST_TRANS      CONNECTED TO MODEL TEST_TRANS       PACKAGE CHD              ON UNIT   1016 AT TIME STEP      9, STRESS PERIOD     30

 HEAD WILL BE SAVED ON UNIT 1017 AT END OF TIME STEP    9, STRESS PERIOD   30


  VOLUME BUDGET FOR ENTIRE MODEL AT END OF TIME STEP    9, STRESS PERIOD  30
  ---------------------------------------------------------------------------------------------------

     CUMULATIVE VOLUME      L**3       RATES FOR THIS TIME STEP      L**3/T          PACKAGE NAME    
     ------------------                 ------------------------                     ----------------

           IN:                                      IN:
           ---                                      ---
              STO-SS =          40.4112                STO-SS =       8.1349E-02     STORAGE         
              STO-SY =       25658.7807                STO-SY =          50.7232     STORAGE         
                 RCH =      144110.2010                   RCH =          71.5068     RCHA            
                 CHD =         141.1190                   CHD =           0.0000     CHD             

            TOTAL IN =      169950.5119              TOTAL IN =         122.3114

          OUT:                                     OUT:
          ----                                     ----
              STO-SS =          32.8887                STO-SS =       4.5242E-04     STORAGE         
              STO-SY =       21242.3607                STO-SY =           0.3127     STORAGE         
                 RCH =           0.0000                   RCH =           0.0000     RCHA            
                 CHD =      148676.1801                   CHD =         121.9967     CHD             

           TOTAL OUT =      169951.4294             TOTAL OUT =         122.3098

            IN - OUT =          -0.9175              IN - OUT =       1.5389E-03

 PERCENT DISCREPANCY =          -0.00     PERCENT DISCREPANCY =           0.00




         TIME SUMMARY AT END OF TIME STEP    9 IN STRESS PERIOD   30
                    SECONDS     MINUTES      HOURS       DAYS        YEARS
                    -----------------------------------------------------------
   TIME STEP LENGTH 2.59200E+05  4320.0      72.000      3.0000     8.21355E-03
 STRESS PERIOD TIME 2.33280E+06  38880.      648.00      27.000     7.39220E-02
         TOTAL TIME 7.49952E+07 1.24992E+06  20832.      868.00      2.3765    
 UBDSV1 SAVING           STO-SS ON UNIT   1016 AT TIME STEP     10, STRESS PERIOD     30
 UBDSV1 SAVING           STO-SY ON UNIT   1016 AT TIME STEP     10, STRESS PERIOD     30
 UBDSV1 SAVING     FLOW-JA-FACE ON UNIT   1016 AT TIME STEP     10, STRESS PERIOD     30
 UBDSV06 SAVING              RCH IN MODEL TEST_TRANS       PACKAGE TEST_TRANS      CONNECTED TO MODEL TEST_TRANS       PACKAGE RCHA             ON UNIT   1016 AT TIME STEP     10, STRESS PERIOD     30
 UBDSV06 SAVING              CHD IN MODEL TEST_TRANS       PACKAGE TEST_TRANS      CONNECTED TO MODEL TEST_TRANS       PACKAGE CHD              ON UNIT   1016 AT TIME STEP     10, STRESS PERIOD     30

 HEAD WILL BE SAVED ON UNIT 1017 AT END OF TIME STEP   10, STRESS PERIOD   30


  VOLUME BUDGET FOR ENTIRE MODEL AT END OF TIME STEP   10, STRESS PERIOD  30
  ---------------------------------------------------------------------------------------------------

     CUMULATIVE VOLUME      L**3       RATES FOR THIS TIME STEP      L**3/T          PACKAGE NAME    
     ------------------                 ------------------------                     ----------------

           IN:                                      IN:
           ---                                      ---
              STO-SS =          40.6534                STO-SS =       8.0728E-02     STORAGE         
              STO-SY =       25810.0955                STO-SY =          50.4382     STORAGE         
                 RCH =      144324.7215                   RCH =          71.5068     RCHA            
                 CHD =         141.1190                   CHD =           0.0000     CHD             

            TOTAL IN =      170316.5894              TOTAL IN =         122.0258

          OUT:                                     OUT:
          ----                                     ----
              STO-SS =          32.8887                STO-SS =       8.6009E-06     STORAGE         
              STO-SY =       21242.3788                STO-SY =       6.0357E-03     STORAGE         
                 RCH =           0.0000                   RCH =           0.0000     RCHA            
                 CHD =      149042.2344                   CHD =         122.0181     CHD             

           TOTAL OUT =      170317.5019             TOTAL OUT =         122.0242

            IN - OUT =          -0.9125              IN - OUT =       1.6575E-03

 PERCENT DISCREPANCY =          -0.00     PERCENT DISCREPANCY =           0.00




         TIME SUMMARY AT END OF TIME STEP   10 IN STRESS PERIOD   30
                    SECONDS     MINUTES      HOURS       DAYS        YEARS
                    -----------------------------------------------------------
   TIME STEP LENGTH 2.59200E+05  4320.0      72.000      3.0000     8.21355E-03
 STRESS PERIOD TIME 2.59200E+06  43200.      720.00      30.000     8.21355E-02
         TOTAL TIME 7.52544E+07 1.25424E+06  20904.      871.00      2.3847    

 OUTPUT CONTROL FOR STRESS PERIOD 31 IS REPEATED USING SETTINGS FROM A PREVIOUS STRESS PERIOD.


 STRESS PERIOD 31 IS TRANSIENT


                 RECHARGE =  0.5479452E-03
 UBDSV1 SAVING           STO-SS ON UNIT   1016 AT TIME STEP      1, STRESS PERIOD     31
 UBDSV1 SAVING           STO-SY ON UNIT   1016 AT TIME STEP      1, STRESS PERIOD     31
 UBDSV1 SAVING     FLOW-JA-FACE ON UNIT   1016 AT TIME STEP      1, STRESS PERIOD     31
 UBDSV06 SAVING              RCH IN MODEL TEST_TRANS       PACKAGE TEST_TRANS      CONNECTED TO MODEL TEST_TRANS       PACKAGE RCHA             ON UNIT   1016 AT TIME STEP      1, STRESS PERIOD     31
 UBDSV06 SAVING              CHD IN MODEL TEST_TRANS       PACKAGE TEST_TRANS      CONNECTED TO MODEL TEST_TRANS       PACKAGE CHD              ON UNIT   1016 AT TIME STEP      1, STRESS PERIOD     31

 HEAD WILL BE SAVED ON UNIT 1017 AT END OF TIME STEP    1, STRESS PERIOD   31


  VOLUME BUDGET FOR ENTIRE MODEL AT END OF TIME STEP    1, STRESS PERIOD  31
  ---------------------------------------------------------------------------------------------------

     CUMULATIVE VOLUME      L**3       RATES FOR THIS TIME STEP      L**3/T          PACKAGE NAME    
     ------------------                 ------------------------                     ----------------

           IN:                                      IN:
           ---                                      ---
              STO-SS =          40.9507                STO-SS =       9.9102E-02     STORAGE         
              STO-SY =       25995.6144                STO-SY =          61.8396     STORAGE         
                 RCH =      144467.7352                   RCH =          47.6712     RCHA            
                 CHD =         227.2620                   CHD =          28.7143     CHD             

            TOTAL IN =      170731.5624              TOTAL IN =         138.3243

          OUT:                                     OUT:
          ----                                     ----
              STO-SS =          33.4907                STO-SS =           0.2007     STORAGE         
              STO-SY =       21656.7490                STO-SY =         138.1234     STORAGE         
                 RCH =           0.0000                   RCH =           0.0000     RCHA            
                 CHD =      149042.2344                   CHD =           0.0000     CHD             

           TOTAL OUT =      170732.4741             TOTAL OUT =         138.3241

            IN - OUT =          -0.9117              IN - OUT =       2.6715E-04

 PERCENT DISCREPANCY =          -0.00     PERCENT DISCREPANCY =           0.00




         TIME SUMMARY AT END OF TIME STEP    1 IN STRESS PERIOD   31
                    SECONDS     MINUTES      HOURS       DAYS        YEARS
                    -----------------------------------------------------------
   TIME STEP LENGTH 2.59200E+05  4320.0      72.000      3.0000     8.21355E-03
 STRESS PERIOD TIME 2.59200E+05  4320.0      72.000      3.0000     8.21355E-03
         TOTAL TIME 7.55136E+07 1.25856E+06  20976.      874.00      2.3929    
 UBDSV1 SAVING           STO-SS ON UNIT   1016 AT TIME STEP      2, STRESS PERIOD     31
 UBDSV1 SAVING           STO-SY ON UNIT   1016 AT TIME STEP      2, STRESS PERIOD     31
 UBDSV1 SAVING     FLOW-JA-FACE ON UNIT   1016 AT TIME STEP      2, STRESS PERIOD     31
 UBDSV06 SAVING              RCH IN MODEL TEST_TRANS       PACKAGE TEST_TRANS      CONNECTED TO MODEL TEST_TRANS       PACKAGE RCHA             ON UNIT   1016 AT TIME STEP      2, STRESS PERIOD     31
 UBDSV06 SAVING              CHD IN MODEL TEST_TRANS       PACKAGE TEST_TRANS      CONNECTED TO MODEL TEST_TRANS       PACKAGE CHD              ON UNIT   1016 AT TIME STEP      2, STRESS PERIOD     31

 HEAD WILL BE SAVED ON UNIT 1017 AT END OF TIME STEP    2, STRESS PERIOD   31


  VOLUME BUDGET FOR ENTIRE MODEL AT END OF TIME STEP    2, STRESS PERIOD  31
  ---------------------------------------------------------------------------------------------------

     CUMULATIVE VOLUME      L**3       RATES FOR THIS TIME STEP      L**3/T          PACKAGE NAME    
     ------------------                 ------------------------                     ----------------

           IN:                                      IN:
           ---                                      ---
              STO-SS =          41.2244                STO-SS =       9.1227E-02     STORAGE         
              STO-SY =       26166.2249                STO-SY =          56.8702     STORAGE         
                 RCH =      144610.7489                   RCH =          47.6712     RCHA            
                 CHD =         227.2620                   CHD =           0.0000     CHD             

            TOTAL IN =      171045.4603              TOTAL IN =         104.6326

          OUT:                                     OUT:
          ----                                     ----
              STO-SS =          33.8283                STO-SS =           0.1125     STORAGE         
              STO-SY =       21885.6376                STO-SY =          76.2962     STORAGE         
                 RCH =           0.0000                   RCH =           0.0000     RCHA            
                 CHD =      149126.9071                   CHD =          28.2242     CHD             

           TOTAL OUT =      171046.3730             TOTAL OUT =         104.6330

            IN - OUT =          -0.9128              IN - OUT =      -3.5090E-04

 PERCENT DISCREPANCY =          -0.00     PERCENT DISCREPANCY =          -0.00




         TIME SUMMARY AT END OF TIME STEP    2 IN STRESS PERIOD   31
                    SECONDS     MINUTES      HOURS       DAYS        YEARS
                    -----------------------------------------------------------
   TIME STEP LENGTH 2.59200E+05  4320.0      72.000      3.0000     8.21355E-03
 STRESS PERIOD TIME 5.18400E+05  8640.0      144.00      6.0000     1.64271E-02
         TOTAL TIME 7.57728E+07 1.26288E+06  21048.      877.00      2.4011    
 UBDSV1 SAVING           STO-SS ON UNIT   1016 AT TIME STEP      3, STRESS PERIOD     31
 UBDSV1 SAVING           STO-SY ON UNIT   1016 AT TIME STEP      3, STRESS PERIOD     31
 UBDSV1 SAVING     FLOW-JA-FACE ON UNIT   1016 AT TIME STEP      3, STRESS PERIOD     31
 UBDSV06 SAVING              RCH IN MODEL TEST_TRANS       PACKAGE TEST_TRANS      CONNECTED TO MODEL TEST_TRANS       PACKAGE RCHA             ON UNIT   1016 AT TIME STEP      3, STRESS PERIOD     31
 UBDSV06 SAVING              CHD IN MODEL TEST_TRANS       PACKAGE TEST_TRANS      CONNECTED TO MODEL TEST_TRANS       PACKAGE CHD              ON UNIT   1016 AT TIME STEP      3, STRESS PERIOD     31

 HEAD WILL BE SAVED ON UNIT 1017 AT END OF TIME STEP    3, STRESS PERIOD   31


  VOLUME BUDGET FOR ENTIRE MODEL AT END OF TIME STEP    3, STRESS PERIOD  31
  ---------------------------------------------------------------------------------------------------

     CUMULATIVE VOLUME      L**3       RATES FOR THIS TIME STEP      L**3/T          PACKAGE NAME    
     ------------------                 ------------------------                     ----------------

           IN:                                      IN:
           ---                                      ---
              STO-SS =          41.4783                STO-SS =       8.4643E-02     STORAGE         
              STO-SY =       26324.4717                STO-SY =          52.7489     STORAGE         
                 RCH =      144753.7626                   RCH =          47.6712     RCHA            
                 CHD =         227.2620                   CHD =           0.0000     CHD             

            TOTAL IN =      171346.9747              TOTAL IN =         100.5048

          OUT:                                     OUT:
          ----                                     ----
              STO-SS =          34.0549                STO-SS =       7.5516E-02     STORAGE         
              STO-SY =       22038.0329                STO-SY =          50.7985     STORAGE         
                 RCH =           0.0000                   RCH =           0.0000     RCHA            
                 CHD =      149275.8017                   CHD =          49.6315     CHD             

           TOTAL OUT =      171347.8895             TOTAL OUT =         100.5055

            IN - OUT =          -0.9147              IN - OUT =      -6.5960E-04

 PERCENT DISCREPANCY =          -0.00     PERCENT DISCREPANCY =          -0.00




         TIME SUMMARY AT END OF TIME STEP    3 IN STRESS PERIOD   31
                    SECONDS     MINUTES      HOURS       DAYS        YEARS
                    -----------------------------------------------------------
   TIME STEP LENGTH 2.59200E+05  4320.0      72.000      3.0000     8.21355E-03
 STRESS PERIOD TIME 7.77600E+05  12960.      216.00      9.0000     2.46407E-02
         TOTAL TIME 7.60320E+07 1.26720E+06  21120.      880.00      2.4093    
 UBDSV1 SAVING           STO-SS ON UNIT   1016 AT TIME STEP      4, STRESS PERIOD     31
 UBDSV1 SAVING           STO-SY ON UNIT   1016 AT TIME STEP      4, STRESS PERIOD     31
 UBDSV1 SAVING     FLOW-JA-FACE ON UNIT   1016 AT TIME STEP      4, STRESS PERIOD     31
 UBDSV06 SAVING              RCH IN MODEL TEST_TRANS       PACKAGE TEST_TRANS      CONNECTED TO MODEL TEST_TRANS       PACKAGE RCHA             ON UNIT   1016 AT TIME STEP      4, STRESS PERIOD     31
 UBDSV06 SAVING              CHD IN MODEL TEST_TRANS       PACKAGE TEST_TRANS      CONNECTED TO MODEL TEST_TRANS       PACKAGE CHD              ON UNIT   1016 AT TIME STEP      4, STRESS PERIOD     31

 HEAD WILL BE SAVED ON UNIT 1017 AT END OF TIME STEP    4, STRESS PERIOD   31


  VOLUME BUDGET FOR ENTIRE MODEL AT END OF TIME STEP    4, STRESS PERIOD  31
  ---------------------------------------------------------------------------------------------------

     CUMULATIVE VOLUME      L**3       RATES FOR THIS TIME STEP      L**3/T          PACKAGE NAME    
     ------------------                 ------------------------                     ----------------

           IN:                                      IN:
           ---                                      ---
              STO-SS =          41.7151                STO-SS =       7.8915E-02     STORAGE         
              STO-SY =       26472.0123                STO-SY =          49.1802     STORAGE         
                 RCH =      144896.7763                   RCH =          47.6712     RCHA            
                 CHD =         227.2620                   CHD =           0.0000     CHD             

            TOTAL IN =      171637.7658              TOTAL IN =          96.9304

          OUT:                                     OUT:
          ----                                     ----
              STO-SS =          34.2181                STO-SS =       5.4404E-02     STORAGE         
              STO-SY =       22147.2885                STO-SY =          36.4185     STORAGE         
                 RCH =           0.0000                   RCH =           0.0000     RCHA            
                 CHD =      149457.1759                   CHD =          60.4581     CHD             

           TOTAL OUT =      171638.6825             TOTAL OUT =          96.9310

            IN - OUT =          -0.9168              IN - OUT =      -6.7134E-04

 PERCENT DISCREPANCY =          -0.00     PERCENT DISCREPANCY =          -0.00




         TIME SUMMARY AT END OF TIME STEP    4 IN STRESS PERIOD   31
                    SECONDS     MINUTES      HOURS       DAYS        YEARS
                    -----------------------------------------------------------
   TIME STEP LENGTH 2.59200E+05  4320.0      72.000      3.0000     8.21355E-03
 STRESS PERIOD TIME 1.03680E+06  17280.      288.00      12.000     3.28542E-02
         TOTAL TIME 7.62912E+07 1.27152E+06  21192.      883.00      2.4175    
 UBDSV1 SAVING           STO-SS ON UNIT   1016 AT TIME STEP      5, STRESS PERIOD     31
 UBDSV1 SAVING           STO-SY ON UNIT   1016 AT TIME STEP      5, STRESS PERIOD     31
 UBDSV1 SAVING     FLOW-JA-FACE ON UNIT   1016 AT TIME STEP      5, STRESS PERIOD     31
 UBDSV06 SAVING              RCH IN MODEL TEST_TRANS       PACKAGE TEST_TRANS      CONNECTED TO MODEL TEST_TRANS       PACKAGE RCHA             ON UNIT   1016 AT TIME STEP      5, STRESS PERIOD     31
 UBDSV06 SAVING              CHD IN MODEL TEST_TRANS       PACKAGE TEST_TRANS      CONNECTED TO MODEL TEST_TRANS       PACKAGE CHD              ON UNIT   1016 AT TIME STEP      5, STRESS PERIOD     31

 HEAD WILL BE SAVED ON UNIT 1017 AT END OF TIME STEP    5, STRESS PERIOD   31


  VOLUME BUDGET FOR ENTIRE MODEL AT END OF TIME STEP    5, STRESS PERIOD  31
  ---------------------------------------------------------------------------------------------------

     CUMULATIVE VOLUME      L**3       RATES FOR THIS TIME STEP      L**3/T          PACKAGE NAME    
     ------------------                 ------------------------                     ----------------

           IN:                                      IN:
           ---                                      ---
              STO-SS =          41.9376                STO-SS =       7.4173E-02     STORAGE         
              STO-SY =       26610.7378                STO-SY =          46.2418     STORAGE         
                 RCH =      145039.7900                   RCH =          47.6712     RCHA            
                 CHD =         227.2620                   CHD =           0.0000     CHD             

            TOTAL IN =      171919.7275              TOTAL IN =          93.9872

          OUT:                                     OUT:
          ----                                     ----
              STO-SS =          34.3396                STO-SS =       4.0493E-02     STORAGE         
              STO-SY =       22228.3367                STO-SY =          27.0161     STORAGE         
                 RCH =           0.0000                   RCH =           0.0000     RCHA            
                 CHD =      149657.9751                   CHD =          66.9331     CHD             

           TOTAL OUT =      171920.6514             TOTAL OUT =          93.9896

            IN - OUT =          -0.9239              IN - OUT =      -2.3898E-03

 PERCENT DISCREPANCY =          -0.00     PERCENT DISCREPANCY =          -0.00




         TIME SUMMARY AT END OF TIME STEP    5 IN STRESS PERIOD   31
                    SECONDS     MINUTES      HOURS       DAYS        YEARS
                    -----------------------------------------------------------
   TIME STEP LENGTH 2.59200E+05  4320.0      72.000      3.0000     8.21355E-03
 STRESS PERIOD TIME 1.29600E+06  21600.      360.00      15.000     4.10678E-02
         TOTAL TIME 7.65504E+07 1.27584E+06  21264.      886.00      2.4257    
 UBDSV1 SAVING           STO-SS ON UNIT   1016 AT TIME STEP      6, STRESS PERIOD     31
 UBDSV1 SAVING           STO-SY ON UNIT   1016 AT TIME STEP      6, STRESS PERIOD     31
 UBDSV1 SAVING     FLOW-JA-FACE ON UNIT   1016 AT TIME STEP      6, STRESS PERIOD     31
 UBDSV06 SAVING              RCH IN MODEL TEST_TRANS       PACKAGE TEST_TRANS      CONNECTED TO MODEL TEST_TRANS       PACKAGE RCHA             ON UNIT   1016 AT TIME STEP      6, STRESS PERIOD     31
 UBDSV06 SAVING              CHD IN MODEL TEST_TRANS       PACKAGE TEST_TRANS      CONNECTED TO MODEL TEST_TRANS       PACKAGE CHD              ON UNIT   1016 AT TIME STEP      6, STRESS PERIOD     31

 HEAD WILL BE SAVED ON UNIT 1017 AT END OF TIME STEP    6, STRESS PERIOD   31


  VOLUME BUDGET FOR ENTIRE MODEL AT END OF TIME STEP    6, STRESS PERIOD  31
  ---------------------------------------------------------------------------------------------------

     CUMULATIVE VOLUME      L**3       RATES FOR THIS TIME STEP      L**3/T          PACKAGE NAME    
     ------------------                 ------------------------                     ----------------

           IN:                                      IN:
           ---                                      ---
              STO-SS =          42.1477                STO-SS =       7.0028E-02     STORAGE         
              STO-SY =       26741.7770                STO-SY =          43.6797     STORAGE         
                 RCH =      145182.8037                   RCH =          47.6712     RCHA            
                 CHD =         227.2620                   CHD =           0.0000     CHD             

            TOTAL IN =      172193.9904              TOTAL IN =          91.4210

          OUT:                                     OUT:
          ----                                     ----
              STO-SS =          34.4307                STO-SS =       3.0360E-02     STORAGE         
              STO-SY =       22288.9708                STO-SY =          20.2113     STORAGE         
                 RCH =           0.0000                   RCH =           0.0000     RCHA            
                 CHD =      149871.5194                   CHD =          71.1814     CHD             

           TOTAL OUT =      172194.9208             TOTAL OUT =          91.4232

            IN - OUT =          -0.9304              IN - OUT =      -2.1596E-03

 PERCENT DISCREPANCY =          -0.00     PERCENT DISCREPANCY =          -0.00




         TIME SUMMARY AT END OF TIME STEP    6 IN STRESS PERIOD   31
                    SECONDS     MINUTES      HOURS       DAYS        YEARS
                    -----------------------------------------------------------
   TIME STEP LENGTH 2.59200E+05  4320.0      72.000      3.0000     8.21355E-03
 STRESS PERIOD TIME 1.55520E+06  25920.      432.00      18.000     4.92813E-02
         TOTAL TIME 7.68096E+07 1.28016E+06  21336.      889.00      2.4339    
 UBDSV1 SAVING           STO-SS ON UNIT   1016 AT TIME STEP      7, STRESS PERIOD     31
 UBDSV1 SAVING           STO-SY ON UNIT   1016 AT TIME STEP      7, STRESS PERIOD     31
 UBDSV1 SAVING     FLOW-JA-FACE ON UNIT   1016 AT TIME STEP      7, STRESS PERIOD     31
 UBDSV06 SAVING              RCH IN MODEL TEST_TRANS       PACKAGE TEST_TRANS      CONNECTED TO MODEL TEST_TRANS       PACKAGE RCHA             ON UNIT   1016 AT TIME STEP      7, STRESS PERIOD     31
 UBDSV06 SAVING              CHD IN MODEL TEST_TRANS       PACKAGE TEST_TRANS      CONNECTED TO MODEL TEST_TRANS       PACKAGE CHD              ON UNIT   1016 AT TIME STEP      7, STRESS PERIOD     31

 HEAD WILL BE SAVED ON UNIT 1017 AT END OF TIME STEP    7, STRESS PERIOD   31


  VOLUME BUDGET FOR ENTIRE MODEL AT END OF TIME STEP    7, STRESS PERIOD  31
  ---------------------------------------------------------------------------------------------------

     CUMULATIVE VOLUME      L**3       RATES FOR THIS TIME STEP      L**3/T          PACKAGE NAME    
     ------------------                 ------------------------                     ----------------

           IN:                                      IN:
           ---                                      ---
              STO-SS =          42.3471                STO-SS =       6.6479E-02     STORAGE         
              STO-SY =       26866.2559                STO-SY =          41.4929     STORAGE         
                 RCH =      145325.8174                   RCH =          47.6712     RCHA            
                 CHD =         227.2620                   CHD =           0.0000     CHD             

            TOTAL IN =      172461.6824              TOTAL IN =          89.2307

          OUT:                                     OUT:
          ----                                     ----
              STO-SS =          34.4987                STO-SS =       2.2694E-02     STORAGE         
              STO-SY =       22334.2349                STO-SY =          15.0880     STORAGE         
                 RCH =           0.0000                   RCH =           0.0000     RCHA            
                 CHD =      150093.8834                   CHD =          74.1213     CHD             

           TOTAL OUT =      172462.6170             TOTAL OUT =          89.2321

            IN - OUT =          -0.9346              IN - OUT =      -1.4055E-03

 PERCENT DISCREPANCY =          -0.00     PERCENT DISCREPANCY =          -0.00




         TIME SUMMARY AT END OF TIME STEP    7 IN STRESS PERIOD   31
                    SECONDS     MINUTES      HOURS       DAYS        YEARS
                    -----------------------------------------------------------
   TIME STEP LENGTH 2.59200E+05  4320.0      72.000      3.0000     8.21355E-03
 STRESS PERIOD TIME 1.81440E+06  30240.      504.00      21.000     5.74949E-02
         TOTAL TIME 7.70688E+07 1.28448E+06  21408.      892.00      2.4422    
 UBDSV1 SAVING           STO-SS ON UNIT   1016 AT TIME STEP      8, STRESS PERIOD     31
 UBDSV1 SAVING           STO-SY ON UNIT   1016 AT TIME STEP      8, STRESS PERIOD     31
 UBDSV1 SAVING     FLOW-JA-FACE ON UNIT   1016 AT TIME STEP      8, STRESS PERIOD     31
 UBDSV06 SAVING              RCH IN MODEL TEST_TRANS       PACKAGE TEST_TRANS      CONNECTED TO MODEL TEST_TRANS       PACKAGE RCHA             ON UNIT   1016 AT TIME STEP      8, STRESS PERIOD     31
 UBDSV06 SAVING              CHD IN MODEL TEST_TRANS       PACKAGE TEST_TRANS      CONNECTED TO MODEL TEST_TRANS       PACKAGE CHD              ON UNIT   1016 AT TIME STEP      8, STRESS PERIOD     31

 HEAD WILL BE SAVED ON UNIT 1017 AT END OF TIME STEP    8, STRESS PERIOD   31


  VOLUME BUDGET FOR ENTIRE MODEL AT END OF TIME STEP    8, STRESS PERIOD  31
  ---------------------------------------------------------------------------------------------------

     CUMULATIVE VOLUME      L**3       RATES FOR THIS TIME STEP      L**3/T          PACKAGE NAME    
     ------------------                 ------------------------                     ----------------

           IN:                                      IN:
           ---                                      ---
              STO-SS =          42.5375                STO-SS =       6.3456E-02     STORAGE         
              STO-SY =       26985.1648                STO-SY =          39.6363     STORAGE         
                 RCH =      145468.8311                   RCH =          47.6712     RCHA            
                 CHD =         227.2620                   CHD =           0.0000     CHD             

            TOTAL IN =      172723.7955              TOTAL IN =          87.3710

          OUT:                                     OUT:
          ----                                     ----
              STO-SS =          34.5490                STO-SS =       1.6761E-02     STORAGE         
              STO-SY =       22367.6430                STO-SY =          11.1361     STORAGE         
                 RCH =           0.0000                   RCH =           0.0000     RCHA            
                 CHD =      150322.5407                   CHD =          76.2191     CHD             

           TOTAL OUT =      172724.7327             TOTAL OUT =          87.3719

            IN - OUT =          -0.9373              IN - OUT =      -8.7893E-04

 PERCENT DISCREPANCY =          -0.00     PERCENT DISCREPANCY =          -0.00




         TIME SUMMARY AT END OF TIME STEP    8 IN STRESS PERIOD   31
                    SECONDS     MINUTES      HOURS       DAYS        YEARS
                    -----------------------------------------------------------
   TIME STEP LENGTH 2.59200E+05  4320.0      72.000      3.0000     8.21355E-03
 STRESS PERIOD TIME 2.07360E+06  34560.      576.00      24.000     6.57084E-02
         TOTAL TIME 7.73280E+07 1.28880E+06  21480.      895.00      2.4504    
 UBDSV1 SAVING           STO-SS ON UNIT   1016 AT TIME STEP      9, STRESS PERIOD     31
 UBDSV1 SAVING           STO-SY ON UNIT   1016 AT TIME STEP      9, STRESS PERIOD     31
 UBDSV1 SAVING     FLOW-JA-FACE ON UNIT   1016 AT TIME STEP      9, STRESS PERIOD     31
 UBDSV06 SAVING              RCH IN MODEL TEST_TRANS       PACKAGE TEST_TRANS      CONNECTED TO MODEL TEST_TRANS       PACKAGE RCHA             ON UNIT   1016 AT TIME STEP      9, STRESS PERIOD     31
 UBDSV06 SAVING              CHD IN MODEL TEST_TRANS       PACKAGE TEST_TRANS      CONNECTED TO MODEL TEST_TRANS       PACKAGE CHD              ON UNIT   1016 AT TIME STEP      9, STRESS PERIOD     31

 HEAD WILL BE SAVED ON UNIT 1017 AT END OF TIME STEP    9, STRESS PERIOD   31


  VOLUME BUDGET FOR ENTIRE MODEL AT END OF TIME STEP    9, STRESS PERIOD  31
  ---------------------------------------------------------------------------------------------------

     CUMULATIVE VOLUME      L**3       RATES FOR THIS TIME STEP      L**3/T          PACKAGE NAME    
     ------------------                 ------------------------                     ----------------

           IN:                                      IN:
           ---                                      ---
              STO-SS =          42.7201                STO-SS =       6.0871E-02     STORAGE         
              STO-SY =       27099.3243                STO-SY =          38.0531     STORAGE         
                 RCH =      145611.8448                   RCH =          47.6712     RCHA            
                 CHD =         227.2620                   CHD =           0.0000     CHD             

            TOTAL IN =      172981.1512              TOTAL IN =          85.7853

          OUT:                                     OUT:
          ----                                     ----
              STO-SS =          34.5853                STO-SS =       1.2092E-02     STORAGE         
              STO-SY =       22391.7454                STO-SY =           8.0341     STORAGE         
                 RCH =           0.0000                   RCH =           0.0000     RCHA            
                 CHD =      150555.7593                   CHD =          77.7395     CHD             

           TOTAL OUT =      172982.0899             TOTAL OUT =          85.7857

            IN - OUT =          -0.9387              IN - OUT =      -4.7878E-04

 PERCENT DISCREPANCY =          -0.00     PERCENT DISCREPANCY =          -0.00




         TIME SUMMARY AT END OF TIME STEP    9 IN STRESS PERIOD   31
                    SECONDS     MINUTES      HOURS       DAYS        YEARS
                    -----------------------------------------------------------
   TIME STEP LENGTH 2.59200E+05  4320.0      72.000      3.0000     8.21355E-03
 STRESS PERIOD TIME 2.33280E+06  38880.      648.00      27.000     7.39220E-02
         TOTAL TIME 7.75872E+07 1.29312E+06  21552.      898.00      2.4586    
 UBDSV1 SAVING           STO-SS ON UNIT   1016 AT TIME STEP     10, STRESS PERIOD     31
 UBDSV1 SAVING           STO-SY ON UNIT   1016 AT TIME STEP     10, STRESS PERIOD     31
 UBDSV1 SAVING     FLOW-JA-FACE ON UNIT   1016 AT TIME STEP     10, STRESS PERIOD     31
 UBDSV06 SAVING              RCH IN MODEL TEST_TRANS       PACKAGE TEST_TRANS      CONNECTED TO MODEL TEST_TRANS       PACKAGE RCHA             ON UNIT   1016 AT TIME STEP     10, STRESS PERIOD     31
 UBDSV06 SAVING              CHD IN MODEL TEST_TRANS       PACKAGE TEST_TRANS      CONNECTED TO MODEL TEST_TRANS       PACKAGE CHD              ON UNIT   1016 AT TIME STEP     10, STRESS PERIOD     31

 HEAD WILL BE SAVED ON UNIT 1017 AT END OF TIME STEP   10, STRESS PERIOD   31


  VOLUME BUDGET FOR ENTIRE MODEL AT END OF TIME STEP   10, STRESS PERIOD  31
  ---------------------------------------------------------------------------------------------------

     CUMULATIVE VOLUME      L**3       RATES FOR THIS TIME STEP      L**3/T          PACKAGE NAME    
     ------------------                 ------------------------                     ----------------

           IN:                                      IN:
           ---                                      ---
              STO-SS =          42.8965                STO-SS =       5.8787E-02     STORAGE         
              STO-SY =       27209.6796                STO-SY =          36.7851     STORAGE         
                 RCH =      145754.8585                   RCH =          47.6712     RCHA            
                 CHD =         227.2620                   CHD =           0.0000     CHD             

            TOTAL IN =      173234.6966              TOTAL IN =          84.5151

          OUT:                                     OUT:
          ----                                     ----
              STO-SS =          34.6109                STO-SS =       8.5218E-03     STORAGE         
              STO-SY =       22408.7385                STO-SY =           5.6644     STORAGE         
                 RCH =           0.0000                   RCH =           0.0000     RCHA            
                 CHD =      150792.3180                   CHD =          78.8529     CHD             

           TOTAL OUT =      173235.6673             TOTAL OUT =          84.5258

            IN - OUT =          -0.9707              IN - OUT =      -1.0658E-02

 PERCENT DISCREPANCY =          -0.00     PERCENT DISCREPANCY =          -0.01




         TIME SUMMARY AT END OF TIME STEP   10 IN STRESS PERIOD   31
                    SECONDS     MINUTES      HOURS       DAYS        YEARS
                    -----------------------------------------------------------
   TIME STEP LENGTH 2.59200E+05  4320.0      72.000      3.0000     8.21355E-03
 STRESS PERIOD TIME 2.59200E+06  43200.      720.00      30.000     8.21355E-02
         TOTAL TIME 7.78464E+07 1.29744E+06  21624.      901.00      2.4668    

 OUTPUT CONTROL FOR STRESS PERIOD 32 IS REPEATED USING SETTINGS FROM A PREVIOUS STRESS PERIOD.


 STRESS PERIOD 32 IS TRANSIENT


                 RECHARGE =  0.1095890E-02
 UBDSV1 SAVING           STO-SS ON UNIT   1016 AT TIME STEP      1, STRESS PERIOD     32
 UBDSV1 SAVING           STO-SY ON UNIT   1016 AT TIME STEP      1, STRESS PERIOD     32
 UBDSV1 SAVING     FLOW-JA-FACE ON UNIT   1016 AT TIME STEP      1, STRESS PERIOD     32
 UBDSV06 SAVING              RCH IN MODEL TEST_TRANS       PACKAGE TEST_TRANS      CONNECTED TO MODEL TEST_TRANS       PACKAGE RCHA             ON UNIT   1016 AT TIME STEP      1, STRESS PERIOD     32
 UBDSV06 SAVING              CHD IN MODEL TEST_TRANS       PACKAGE TEST_TRANS      CONNECTED TO MODEL TEST_TRANS       PACKAGE CHD              ON UNIT   1016 AT TIME STEP      1, STRESS PERIOD     32

 HEAD WILL BE SAVED ON UNIT 1017 AT END OF TIME STEP    1, STRESS PERIOD   32


  VOLUME BUDGET FOR ENTIRE MODEL AT END OF TIME STEP    1, STRESS PERIOD  32
  ---------------------------------------------------------------------------------------------------

     CUMULATIVE VOLUME      L**3       RATES FOR THIS TIME STEP      L**3/T          PACKAGE NAME    
     ------------------                 ------------------------                     ----------------

           IN:                                      IN:
           ---                                      ---
              STO-SS =          43.6496                STO-SS =           0.2511     STORAGE         
              STO-SY =       27720.2798                STO-SY =         170.2000     STORAGE         
                 RCH =      146040.8858                   RCH =          95.3424     RCHA            
                 CHD =         227.2620                   CHD =           0.0000     CHD             

            TOTAL IN =      174032.0772              TOTAL IN =         265.7935

          OUT:                                     OUT:
          ----                                     ----
              STO-SS =          34.6335                STO-SS =       7.5363E-03     STORAGE         
              STO-SY =       22423.2868                STO-SY =           4.8494     STORAGE         
                 RCH =           0.0000                   RCH =           0.0000     RCHA            
                 CHD =      151575.1301                   CHD =         260.9374     CHD             

           TOTAL OUT =      174033.0503             TOTAL OUT =         265.7943

            IN - OUT =          -0.9730              IN - OUT =      -7.8846E-04

 PERCENT DISCREPANCY =          -0.00     PERCENT DISCREPANCY =          -0.00




         TIME SUMMARY AT END OF TIME STEP    1 IN STRESS PERIOD   32
                    SECONDS     MINUTES      HOURS       DAYS        YEARS
                    -----------------------------------------------------------
   TIME STEP LENGTH 2.59200E+05  4320.0      72.000      3.0000     8.21355E-03
 STRESS PERIOD TIME 2.59200E+05  4320.0      72.000      3.0000     8.21355E-03
         TOTAL TIME 7.81056E+07 1.30176E+06  21696.      904.00      2.4750    
 UBDSV1 SAVING           STO-SS ON UNIT   1016 AT TIME STEP      2, STRESS PERIOD     32
 UBDSV1 SAVING           STO-SY ON UNIT   1016 AT TIME STEP      2, STRESS PERIOD     32
 UBDSV1 SAVING     FLOW-JA-FACE ON UNIT   1016 AT TIME STEP      2, STRESS PERIOD     32
 UBDSV06 SAVING              RCH IN MODEL TEST_TRANS       PACKAGE TEST_TRANS      CONNECTED TO MODEL TEST_TRANS       PACKAGE RCHA             ON UNIT   1016 AT TIME STEP      2, STRESS PERIOD     32
 UBDSV06 SAVING              CHD IN MODEL TEST_TRANS       PACKAGE TEST_TRANS      CONNECTED TO MODEL TEST_TRANS       PACKAGE CHD              ON UNIT   1016 AT TIME STEP      2, STRESS PERIOD     32

 HEAD WILL BE SAVED ON UNIT 1017 AT END OF TIME STEP    2, STRESS PERIOD   32


  VOLUME BUDGET FOR ENTIRE MODEL AT END OF TIME STEP    2, STRESS PERIOD  32
  ---------------------------------------------------------------------------------------------------

     CUMULATIVE VOLUME      L**3       RATES FOR THIS TIME STEP      L**3/T          PACKAGE NAME    
     ------------------                 ------------------------                     ----------------

           IN:                                      IN:
           ---                                      ---
              STO-SS =          44.0998                STO-SS =           0.1501     STORAGE         
              STO-SY =       28023.9138                STO-SY =         101.2113     STORAGE         
                 RCH =      146326.9131                   RCH =          95.3424     RCHA            
                 CHD =         227.2620                   CHD =           0.0000     CHD             

            TOTAL IN =      174622.1887              TOTAL IN =         196.7038

          OUT:                                     OUT:
          ----                                     ----
              STO-SS =          34.6375                STO-SS =       1.3396E-03     STORAGE         
              STO-SY =       22425.8554                STO-SY =           0.8562     STORAGE         
                 RCH =           0.0000                   RCH =           0.0000     RCHA            
                 CHD =      152162.6751                   CHD =         195.8483     CHD             

           TOTAL OUT =      174623.1680             TOTAL OUT =         196.7059

            IN - OUT =          -0.9793              IN - OUT =      -2.0849E-03

 PERCENT DISCREPANCY =          -0.00     PERCENT DISCREPANCY =          -0.00




         TIME SUMMARY AT END OF TIME STEP    2 IN STRESS PERIOD   32
                    SECONDS     MINUTES      HOURS       DAYS        YEARS
                    -----------------------------------------------------------
   TIME STEP LENGTH 2.59200E+05  4320.0      72.000      3.0000     8.21355E-03
 STRESS PERIOD TIME 5.18400E+05  8640.0      144.00      6.0000     1.64271E-02
         TOTAL TIME 7.83648E+07 1.30608E+06  21768.      907.00      2.4832    
 UBDSV1 SAVING           STO-SS ON UNIT   1016 AT TIME STEP      3, STRESS PERIOD     32
 UBDSV1 SAVING           STO-SY ON UNIT   1016 AT TIME STEP      3, STRESS PERIOD     32
 UBDSV1 SAVING     FLOW-JA-FACE ON UNIT   1016 AT TIME STEP      3, STRESS PERIOD     32
 UBDSV06 SAVING              RCH IN MODEL TEST_TRANS       PACKAGE TEST_TRANS      CONNECTED TO MODEL TEST_TRANS       PACKAGE RCHA             ON UNIT   1016 AT TIME STEP      3, STRESS PERIOD     32
 UBDSV06 SAVING              CHD IN MODEL TEST_TRANS       PACKAGE TEST_TRANS      CONNECTED TO MODEL TEST_TRANS       PACKAGE CHD              ON UNIT   1016 AT TIME STEP      3, STRESS PERIOD     32

 HEAD WILL BE SAVED ON UNIT 1017 AT END OF TIME STEP    3, STRESS PERIOD   32


  VOLUME BUDGET FOR ENTIRE MODEL AT END OF TIME STEP    3, STRESS PERIOD  32
  ---------------------------------------------------------------------------------------------------

     CUMULATIVE VOLUME      L**3       RATES FOR THIS TIME STEP      L**3/T          PACKAGE NAME    
     ------------------                 ------------------------                     ----------------

           IN:                                      IN:
           ---                                      ---
              STO-SS =          44.4379                STO-SS =           0.1127     STORAGE         
              STO-SY =       28250.0639                STO-SY =          75.3834     STORAGE         
                 RCH =      146612.9404                   RCH =          95.3424     RCHA            
                 CHD =         227.2620                   CHD =           0.0000     CHD             

            TOTAL IN =      175134.7042              TOTAL IN =         170.8385

          OUT:                                     OUT:
          ----                                     ----
              STO-SS =          34.6375                STO-SS =           0.0000     STORAGE         
              STO-SY =       22425.8554                STO-SY =           0.0000     STORAGE         
                 RCH =           0.0000                   RCH =           0.0000     RCHA            
                 CHD =      152675.1847                   CHD =         170.8365     CHD             

           TOTAL OUT =      175135.6776             TOTAL OUT =         170.8365

            IN - OUT =          -0.9735              IN - OUT =       1.9379E-03

 PERCENT DISCREPANCY =          -0.00     PERCENT DISCREPANCY =           0.00




         TIME SUMMARY AT END OF TIME STEP    3 IN STRESS PERIOD   32
                    SECONDS     MINUTES      HOURS       DAYS        YEARS
                    -----------------------------------------------------------
   TIME STEP LENGTH 2.59200E+05  4320.0      72.000      3.0000     8.21355E-03
 STRESS PERIOD TIME 7.77600E+05  12960.      216.00      9.0000     2.46407E-02
         TOTAL TIME 7.86240E+07 1.31040E+06  21840.      910.00      2.4914    
 UBDSV1 SAVING           STO-SS ON UNIT   1016 AT TIME STEP      4, STRESS PERIOD     32
 UBDSV1 SAVING           STO-SY ON UNIT   1016 AT TIME STEP      4, STRESS PERIOD     32
 UBDSV1 SAVING     FLOW-JA-FACE ON UNIT   1016 AT TIME STEP      4, STRESS PERIOD     32
 UBDSV06 SAVING              RCH IN MODEL TEST_TRANS       PACKAGE TEST_TRANS      CONNECTED TO MODEL TEST_TRANS       PACKAGE RCHA             ON UNIT   1016 AT TIME STEP      4, STRESS PERIOD     32
 UBDSV06 SAVING              CHD IN MODEL TEST_TRANS       PACKAGE TEST_TRANS      CONNECTED TO MODEL TEST_TRANS       PACKAGE CHD              ON UNIT   1016 AT TIME STEP      4, STRESS PERIOD     32

 HEAD WILL BE SAVED ON UNIT 1017 AT END OF TIME STEP    4, STRESS PERIOD   32


  VOLUME BUDGET FOR ENTIRE MODEL AT END OF TIME STEP    4, STRESS PERIOD  32
  ---------------------------------------------------------------------------------------------------

     CUMULATIVE VOLUME      L**3       RATES FOR THIS TIME STEP      L**3/T          PACKAGE NAME    
     ------------------                 ------------------------                     ----------------

           IN:                                      IN:
           ---                                      ---
              STO-SS =          44.7201                STO-SS =       9.4079E-02     STORAGE         
              STO-SY =       28437.5326                STO-SY =          62.4896     STORAGE         
                 RCH =      146898.9677                   RCH =          95.3424     RCHA            
                 CHD =         227.2620                   CHD =           0.0000     CHD             

            TOTAL IN =      175608.4825              TOTAL IN =         157.9261

          OUT:                                     OUT:
          ----                                     ----
              STO-SS =          34.6375                STO-SS =           0.0000     STORAGE         
              STO-SY =       22425.8554                STO-SY =           0.0000     STORAGE         
                 RCH =           0.0000                   RCH =           0.0000     RCHA            
                 CHD =      153148.9527                   CHD =         157.9227     CHD             

           TOTAL OUT =      175609.4456             TOTAL OUT =         157.9227

            IN - OUT =          -0.9632              IN - OUT =       3.4389E-03

 PERCENT DISCREPANCY =          -0.00     PERCENT DISCREPANCY =           0.00




         TIME SUMMARY AT END OF TIME STEP    4 IN STRESS PERIOD   32
                    SECONDS     MINUTES      HOURS       DAYS        YEARS
                    -----------------------------------------------------------
   TIME STEP LENGTH 2.59200E+05  4320.0      72.000      3.0000     8.21355E-03
 STRESS PERIOD TIME 1.03680E+06  17280.      288.00      12.000     3.28542E-02
         TOTAL TIME 7.88832E+07 1.31472E+06  21912.      913.00      2.4997    
 UBDSV1 SAVING           STO-SS ON UNIT   1016 AT TIME STEP      5, STRESS PERIOD     32
 UBDSV1 SAVING           STO-SY ON UNIT   1016 AT TIME STEP      5, STRESS PERIOD     32
 UBDSV1 SAVING     FLOW-JA-FACE ON UNIT   1016 AT TIME STEP      5, STRESS PERIOD     32
 UBDSV06 SAVING              RCH IN MODEL TEST_TRANS       PACKAGE TEST_TRANS      CONNECTED TO MODEL TEST_TRANS       PACKAGE RCHA             ON UNIT   1016 AT TIME STEP      5, STRESS PERIOD     32
 UBDSV06 SAVING              CHD IN MODEL TEST_TRANS       PACKAGE TEST_TRANS      CONNECTED TO MODEL TEST_TRANS       PACKAGE CHD              ON UNIT   1016 AT TIME STEP      5, STRESS PERIOD     32

 HEAD WILL BE SAVED ON UNIT 1017 AT END OF TIME STEP    5, STRESS PERIOD   32


  VOLUME BUDGET FOR ENTIRE MODEL AT END OF TIME STEP    5, STRESS PERIOD  32
  ---------------------------------------------------------------------------------------------------

     CUMULATIVE VOLUME      L**3       RATES FOR THIS TIME STEP      L**3/T          PACKAGE NAME    
     ------------------                 ------------------------                     ----------------

           IN:                                      IN:
           ---                                      ---
              STO-SS =          44.9679                STO-SS =       8.2602E-02     STORAGE         
              STO-SY =       28601.2011                STO-SY =          54.5561     STORAGE         
                 RCH =      147184.9950                   RCH =          95.3424     RCHA            
                 CHD =         227.2620                   CHD =           0.0000     CHD             

            TOTAL IN =      176058.4260              TOTAL IN =         149.9812

          OUT:                                     OUT:
          ----                                     ----
              STO-SS =          34.6375                STO-SS =           0.0000     STORAGE         
              STO-SY =       22425.8554                STO-SY =           0.0000     STORAGE         
                 RCH =           0.0000                   RCH =           0.0000     RCHA            
                 CHD =      153598.8865                   CHD =         149.9779     CHD             

           TOTAL OUT =      176059.3794             TOTAL OUT =         149.9779

            IN - OUT =          -0.9534              IN - OUT =       3.2593E-03

 PERCENT DISCREPANCY =          -0.00     PERCENT DISCREPANCY =           0.00




         TIME SUMMARY AT END OF TIME STEP    5 IN STRESS PERIOD   32
                    SECONDS     MINUTES      HOURS       DAYS        YEARS
                    -----------------------------------------------------------
   TIME STEP LENGTH 2.59200E+05  4320.0      72.000      3.0000     8.21355E-03
 STRESS PERIOD TIME 1.29600E+06  21600.      360.00      15.000     4.10678E-02
         TOTAL TIME 7.91424E+07 1.31904E+06  21984.      916.00      2.5079    
 UBDSV1 SAVING           STO-SS ON UNIT   1016 AT TIME STEP      6, STRESS PERIOD     32
 UBDSV1 SAVING           STO-SY ON UNIT   1016 AT TIME STEP      6, STRESS PERIOD     32
 UBDSV1 SAVING     FLOW-JA-FACE ON UNIT   1016 AT TIME STEP      6, STRESS PERIOD     32
 UBDSV06 SAVING              RCH IN MODEL TEST_TRANS       PACKAGE TEST_TRANS      CONNECTED TO MODEL TEST_TRANS       PACKAGE RCHA             ON UNIT   1016 AT TIME STEP      6, STRESS PERIOD     32
 UBDSV06 SAVING              CHD IN MODEL TEST_TRANS       PACKAGE TEST_TRANS      CONNECTED TO MODEL TEST_TRANS       PACKAGE CHD              ON UNIT   1016 AT TIME STEP      6, STRESS PERIOD     32

 HEAD WILL BE SAVED ON UNIT 1017 AT END OF TIME STEP    6, STRESS PERIOD   32


  VOLUME BUDGET FOR ENTIRE MODEL AT END OF TIME STEP    6, STRESS PERIOD  32
  ---------------------------------------------------------------------------------------------------

     CUMULATIVE VOLUME      L**3       RATES FOR THIS TIME STEP      L**3/T          PACKAGE NAME    
     ------------------                 ------------------------                     ----------------

           IN:                                      IN:
           ---                                      ---
              STO-SS =          45.1921                STO-SS =       7.4720E-02     STORAGE         
              STO-SY =       28748.5762                STO-SY =          49.1250     STORAGE         
                 RCH =      147471.0222                   RCH =          95.3424     RCHA            
                 CHD =         227.2620                   CHD =           0.0000     CHD             

            TOTAL IN =      176492.0526              TOTAL IN =         144.5422

          OUT:                                     OUT:
          ----                                     ----
              STO-SS =          34.6375                STO-SS =           0.0000     STORAGE         
              STO-SY =       22425.8554                STO-SY =           0.0000     STORAGE         
                 RCH =           0.0000                   RCH =           0.0000     RCHA            
                 CHD =      154032.5047                   CHD =         144.5394     CHD             

           TOTAL OUT =      176492.9976             TOTAL OUT =         144.5394

            IN - OUT =          -0.9451              IN - OUT =       2.7753E-03

 PERCENT DISCREPANCY =          -0.00     PERCENT DISCREPANCY =           0.00




         TIME SUMMARY AT END OF TIME STEP    6 IN STRESS PERIOD   32
                    SECONDS     MINUTES      HOURS       DAYS        YEARS
                    -----------------------------------------------------------
   TIME STEP LENGTH 2.59200E+05  4320.0      72.000      3.0000     8.21355E-03
 STRESS PERIOD TIME 1.55520E+06  25920.      432.00      18.000     4.92813E-02
         TOTAL TIME 7.94016E+07 1.32336E+06  22056.      919.00      2.5161    
 UBDSV1 SAVING           STO-SS ON UNIT   1016 AT TIME STEP      7, STRESS PERIOD     32
 UBDSV1 SAVING           STO-SY ON UNIT   1016 AT TIME STEP      7, STRESS PERIOD     32
 UBDSV1 SAVING     FLOW-JA-FACE ON UNIT   1016 AT TIME STEP      7, STRESS PERIOD     32
 UBDSV06 SAVING              RCH IN MODEL TEST_TRANS       PACKAGE TEST_TRANS      CONNECTED TO MODEL TEST_TRANS       PACKAGE RCHA             ON UNIT   1016 AT TIME STEP      7, STRESS PERIOD     32
 UBDSV06 SAVING              CHD IN MODEL TEST_TRANS       PACKAGE TEST_TRANS      CONNECTED TO MODEL TEST_TRANS       PACKAGE CHD              ON UNIT   1016 AT TIME STEP      7, STRESS PERIOD     32

 HEAD WILL BE SAVED ON UNIT 1017 AT END OF TIME STEP    7, STRESS PERIOD   32


  VOLUME BUDGET FOR ENTIRE MODEL AT END OF TIME STEP    7, STRESS PERIOD  32
  ---------------------------------------------------------------------------------------------------

     CUMULATIVE VOLUME      L**3       RATES FOR THIS TIME STEP      L**3/T          PACKAGE NAME    
     ------------------                 ------------------------                     ----------------

           IN:                                      IN:
           ---                                      ---
              STO-SS =          45.3988                STO-SS =       6.8916E-02     STORAGE         
              STO-SY =       28883.9955                STO-SY =          45.1398     STORAGE         
                 RCH =      147757.0495                   RCH =          95.3424     RCHA            
                 CHD =         227.2620                   CHD =           0.0000     CHD             

            TOTAL IN =      176913.7059              TOTAL IN =         140.5511

          OUT:                                     OUT:
          ----                                     ----
              STO-SS =          34.6375                STO-SS =           0.0000     STORAGE         
              STO-SY =       22425.8554                STO-SY =           0.0000     STORAGE         
                 RCH =           0.0000                   RCH =           0.0000     RCHA            
                 CHD =      154454.1393                   CHD =         140.5449     CHD             

           TOTAL OUT =      176914.6323             TOTAL OUT =         140.5449

            IN - OUT =          -0.9264              IN - OUT =       6.2233E-03

 PERCENT DISCREPANCY =          -0.00     PERCENT DISCREPANCY =           0.00




         TIME SUMMARY AT END OF TIME STEP    7 IN STRESS PERIOD   32
                    SECONDS     MINUTES      HOURS       DAYS        YEARS
                    -----------------------------------------------------------
   TIME STEP LENGTH 2.59200E+05  4320.0      72.000      3.0000     8.21355E-03
 STRESS PERIOD TIME 1.81440E+06  30240.      504.00      21.000     5.74949E-02
         TOTAL TIME 7.96608E+07 1.32768E+06  22128.      922.00      2.5243    
 UBDSV1 SAVING           STO-SS ON UNIT   1016 AT TIME STEP      8, STRESS PERIOD     32
 UBDSV1 SAVING           STO-SY ON UNIT   1016 AT TIME STEP      8, STRESS PERIOD     32
 UBDSV1 SAVING     FLOW-JA-FACE ON UNIT   1016 AT TIME STEP      8, STRESS PERIOD     32
 UBDSV06 SAVING              RCH IN MODEL TEST_TRANS       PACKAGE TEST_TRANS      CONNECTED TO MODEL TEST_TRANS       PACKAGE RCHA             ON UNIT   1016 AT TIME STEP      8, STRESS PERIOD     32
 UBDSV06 SAVING              CHD IN MODEL TEST_TRANS       PACKAGE TEST_TRANS      CONNECTED TO MODEL TEST_TRANS       PACKAGE CHD              ON UNIT   1016 AT TIME STEP      8, STRESS PERIOD     32

 HEAD WILL BE SAVED ON UNIT 1017 AT END OF TIME STEP    8, STRESS PERIOD   32


  VOLUME BUDGET FOR ENTIRE MODEL AT END OF TIME STEP    8, STRESS PERIOD  32
  ---------------------------------------------------------------------------------------------------

     CUMULATIVE VOLUME      L**3       RATES FOR THIS TIME STEP      L**3/T          PACKAGE NAME    
     ------------------                 ------------------------                     ----------------

           IN:                                      IN:
           ---                                      ---
              STO-SS =          45.5921                STO-SS =       6.4413E-02     STORAGE         
              STO-SY =       29010.1744                STO-SY =          42.0596     STORAGE         
                 RCH =      148043.0768                   RCH =          95.3424     RCHA            
                 CHD =         227.2620                   CHD =           0.0000     CHD             

            TOTAL IN =      177326.1053              TOTAL IN =         137.4665

          OUT:                                     OUT:
          ----                                     ----
              STO-SS =          34.6375                STO-SS =           0.0000     STORAGE         
              STO-SY =       22425.8554                STO-SY =           0.0000     STORAGE         
                 RCH =           0.0000                   RCH =           0.0000     RCHA            
                 CHD =      154866.5233                   CHD =         137.4613     CHD             

           TOTAL OUT =      177327.0162             TOTAL OUT =         137.4613

            IN - OUT =          -0.9109              IN - OUT =       5.1477E-03

 PERCENT DISCREPANCY =          -0.00     PERCENT DISCREPANCY =           0.00




         TIME SUMMARY AT END OF TIME STEP    8 IN STRESS PERIOD   32
                    SECONDS     MINUTES      HOURS       DAYS        YEARS
                    -----------------------------------------------------------
   TIME STEP LENGTH 2.59200E+05  4320.0      72.000      3.0000     8.21355E-03
 STRESS PERIOD TIME 2.07360E+06  34560.      576.00      24.000     6.57084E-02
         TOTAL TIME 7.99200E+07 1.33200E+06  22200.      925.00      2.5325    
 UBDSV1 SAVING           STO-SS ON UNIT   1016 AT TIME STEP      9, STRESS PERIOD     32
 UBDSV1 SAVING           STO-SY ON UNIT   1016 AT TIME STEP      9, STRESS PERIOD     32
 UBDSV1 SAVING     FLOW-JA-FACE ON UNIT   1016 AT TIME STEP      9, STRESS PERIOD     32
 UBDSV06 SAVING              RCH IN MODEL TEST_TRANS       PACKAGE TEST_TRANS      CONNECTED TO MODEL TEST_TRANS       PACKAGE RCHA             ON UNIT   1016 AT TIME STEP      9, STRESS PERIOD     32
 UBDSV06 SAVING              CHD IN MODEL TEST_TRANS       PACKAGE TEST_TRANS      CONNECTED TO MODEL TEST_TRANS       PACKAGE CHD              ON UNIT   1016 AT TIME STEP      9, STRESS PERIOD     32

 HEAD WILL BE SAVED ON UNIT 1017 AT END OF TIME STEP    9, STRESS PERIOD   32


  VOLUME BUDGET FOR ENTIRE MODEL AT END OF TIME STEP    9, STRESS PERIOD  32
  ---------------------------------------------------------------------------------------------------

     CUMULATIVE VOLUME      L**3       RATES FOR THIS TIME STEP      L**3/T          PACKAGE NAME    
     ------------------                 ------------------------                     ----------------

           IN:                                      IN:
           ---                                      ---
              STO-SS =          45.7744                STO-SS =       6.0789E-02     STORAGE         
              STO-SY =       29128.9491                STO-SY =          39.5916     STORAGE         
                 RCH =      148329.1041                   RCH =          95.3424     RCHA            
                 CHD =         227.2620                   CHD =           0.0000     CHD             

            TOTAL IN =      177731.0897              TOTAL IN =         134.9948

          OUT:                                     OUT:
          ----                                     ----
              STO-SS =          34.6375                STO-SS =           0.0000     STORAGE         
              STO-SY =       22425.8554                STO-SY =           0.0000     STORAGE         
                 RCH =           0.0000                   RCH =           0.0000     RCHA            
                 CHD =      155271.4946                   CHD =         134.9904     CHD             

           TOTAL OUT =      177731.9876             TOTAL OUT =         134.9904

            IN - OUT =          -0.8979              IN - OUT =       4.3534E-03

 PERCENT DISCREPANCY =          -0.00     PERCENT DISCREPANCY =           0.00




         TIME SUMMARY AT END OF TIME STEP    9 IN STRESS PERIOD   32
                    SECONDS     MINUTES      HOURS       DAYS        YEARS
                    -----------------------------------------------------------
   TIME STEP LENGTH 2.59200E+05  4320.0      72.000      3.0000     8.21355E-03
 STRESS PERIOD TIME 2.33280E+06  38880.      648.00      27.000     7.39220E-02
         TOTAL TIME 8.01792E+07 1.33632E+06  22272.      928.00      2.5407    
 UBDSV1 SAVING           STO-SS ON UNIT   1016 AT TIME STEP     10, STRESS PERIOD     32
 UBDSV1 SAVING           STO-SY ON UNIT   1016 AT TIME STEP     10, STRESS PERIOD     32
 UBDSV1 SAVING     FLOW-JA-FACE ON UNIT   1016 AT TIME STEP     10, STRESS PERIOD     32
 UBDSV06 SAVING              RCH IN MODEL TEST_TRANS       PACKAGE TEST_TRANS      CONNECTED TO MODEL TEST_TRANS       PACKAGE RCHA             ON UNIT   1016 AT TIME STEP     10, STRESS PERIOD     32
 UBDSV06 SAVING              CHD IN MODEL TEST_TRANS       PACKAGE TEST_TRANS      CONNECTED TO MODEL TEST_TRANS       PACKAGE CHD              ON UNIT   1016 AT TIME STEP     10, STRESS PERIOD     32

 HEAD WILL BE SAVED ON UNIT 1017 AT END OF TIME STEP   10, STRESS PERIOD   32


  VOLUME BUDGET FOR ENTIRE MODEL AT END OF TIME STEP   10, STRESS PERIOD  32
  ---------------------------------------------------------------------------------------------------

     CUMULATIVE VOLUME      L**3       RATES FOR THIS TIME STEP      L**3/T          PACKAGE NAME    
     ------------------                 ------------------------                     ----------------

           IN:                                      IN:
           ---                                      ---
              STO-SS =          45.9478                STO-SS =       5.7788E-02     STORAGE         
              STO-SY =       29241.6157                STO-SY =          37.5555     STORAGE         
                 RCH =      148615.1314                   RCH =          95.3424     RCHA            
                 CHD =         227.2620                   CHD =           0.0000     CHD             

            TOTAL IN =      178129.9570              TOTAL IN =         132.9558

          OUT:                                     OUT:
          ----                                     ----
              STO-SS =          34.6375                STO-SS =           0.0000     STORAGE         
              STO-SY =       22425.8554                STO-SY =           0.0000     STORAGE         
                 RCH =           0.0000                   RCH =           0.0000     RCHA            
                 CHD =      155670.3507                   CHD =         132.9520     CHD             

           TOTAL OUT =      178130.8436             TOTAL OUT =         132.9520

            IN - OUT =          -0.8866              IN - OUT =       3.7540E-03

 PERCENT DISCREPANCY =          -0.00     PERCENT DISCREPANCY =           0.00




         TIME SUMMARY AT END OF TIME STEP   10 IN STRESS PERIOD   32
                    SECONDS     MINUTES      HOURS       DAYS        YEARS
                    -----------------------------------------------------------
   TIME STEP LENGTH 2.59200E+05  4320.0      72.000      3.0000     8.21355E-03
 STRESS PERIOD TIME 2.59200E+06  43200.      720.00      30.000     8.21355E-02
         TOTAL TIME 8.04384E+07 1.34064E+06  22344.      931.00      2.5489    

 OUTPUT CONTROL FOR STRESS PERIOD 33 IS REPEATED USING SETTINGS FROM A PREVIOUS STRESS PERIOD.


 STRESS PERIOD 33 IS TRANSIENT


                 RECHARGE =  0.1643840E-02
 UBDSV1 SAVING           STO-SS ON UNIT   1016 AT TIME STEP      1, STRESS PERIOD     33
 UBDSV1 SAVING           STO-SY ON UNIT   1016 AT TIME STEP      1, STRESS PERIOD     33
 UBDSV1 SAVING     FLOW-JA-FACE ON UNIT   1016 AT TIME STEP      1, STRESS PERIOD     33
 UBDSV06 SAVING              RCH IN MODEL TEST_TRANS       PACKAGE TEST_TRANS      CONNECTED TO MODEL TEST_TRANS       PACKAGE RCHA             ON UNIT   1016 AT TIME STEP      1, STRESS PERIOD     33
 UBDSV06 SAVING              CHD IN MODEL TEST_TRANS       PACKAGE TEST_TRANS      CONNECTED TO MODEL TEST_TRANS       PACKAGE CHD              ON UNIT   1016 AT TIME STEP      1, STRESS PERIOD     33

 HEAD WILL BE SAVED ON UNIT 1017 AT END OF TIME STEP    1, STRESS PERIOD   33


  VOLUME BUDGET FOR ENTIRE MODEL AT END OF TIME STEP    1, STRESS PERIOD  33
  ---------------------------------------------------------------------------------------------------

     CUMULATIVE VOLUME      L**3       RATES FOR THIS TIME STEP      L**3/T          PACKAGE NAME    
     ------------------                 ------------------------                     ----------------

           IN:                                      IN:
           ---                                      ---
              STO-SS =          46.0536                STO-SS =       3.5251E-02     STORAGE         
              STO-SY =       29315.0527                STO-SY =          24.4790     STORAGE         
                 RCH =      149044.1736                   RCH =         143.0141     RCHA            
                 CHD =         227.2620                   CHD =           0.0000     CHD             

            TOTAL IN =      178632.5419              TOTAL IN =         167.5283

          OUT:                                     OUT:
          ----                                     ----
              STO-SS =          34.6857                STO-SS =       1.6071E-02     STORAGE         
              STO-SY =       22456.0832                STO-SY =          10.0759     STORAGE         
                 RCH =           0.0000                   RCH =           0.0000     RCHA            
                 CHD =      156142.6860                   CHD =         157.4451     CHD             

           TOTAL OUT =      178633.4549             TOTAL OUT =         167.5371

            IN - OUT =          -0.9130              IN - OUT =      -8.7857E-03

 PERCENT DISCREPANCY =          -0.00     PERCENT DISCREPANCY =          -0.01




         TIME SUMMARY AT END OF TIME STEP    1 IN STRESS PERIOD   33
                    SECONDS     MINUTES      HOURS       DAYS        YEARS
                    -----------------------------------------------------------
   TIME STEP LENGTH 2.59200E+05  4320.0      72.000      3.0000     8.21355E-03
 STRESS PERIOD TIME 2.59200E+05  4320.0      72.000      3.0000     8.21355E-03
         TOTAL TIME 8.06976E+07 1.34496E+06  22416.      934.00      2.5572    
 UBDSV1 SAVING           STO-SS ON UNIT   1016 AT TIME STEP      2, STRESS PERIOD     33
 UBDSV1 SAVING           STO-SY ON UNIT   1016 AT TIME STEP      2, STRESS PERIOD     33
 UBDSV1 SAVING     FLOW-JA-FACE ON UNIT   1016 AT TIME STEP      2, STRESS PERIOD     33
 UBDSV06 SAVING              RCH IN MODEL TEST_TRANS       PACKAGE TEST_TRANS      CONNECTED TO MODEL TEST_TRANS       PACKAGE RCHA             ON UNIT   1016 AT TIME STEP      2, STRESS PERIOD     33
 UBDSV06 SAVING              CHD IN MODEL TEST_TRANS       PACKAGE TEST_TRANS      CONNECTED TO MODEL TEST_TRANS       PACKAGE CHD              ON UNIT   1016 AT TIME STEP      2, STRESS PERIOD     33

 HEAD WILL BE SAVED ON UNIT 1017 AT END OF TIME STEP    2, STRESS PERIOD   33


  VOLUME BUDGET FOR ENTIRE MODEL AT END OF TIME STEP    2, STRESS PERIOD  33
  ---------------------------------------------------------------------------------------------------

     CUMULATIVE VOLUME      L**3       RATES FOR THIS TIME STEP      L**3/T          PACKAGE NAME    
     ------------------                 ------------------------                     ----------------

           IN:                                      IN:
           ---                                      ---
              STO-SS =          46.1196                STO-SS =       2.2026E-02     STORAGE         
              STO-SY =       29360.4065                STO-SY =          15.1179     STORAGE         
                 RCH =      149473.2159                   RCH =         143.0141     RCHA            
                 CHD =         227.2620                   CHD =           0.0000     CHD             

            TOTAL IN =      179107.0040              TOTAL IN =         158.1540

          OUT:                                     OUT:
          ----                                     ----
              STO-SS =          34.7312                STO-SS =       1.5164E-02     STORAGE         
              STO-SY =       22484.5923                STO-SY =           9.5030     STORAGE         
                 RCH =           0.0000                   RCH =           0.0000     RCHA            
                 CHD =      156588.5959                   CHD =         148.6366     CHD             

           TOTAL OUT =      179107.9194             TOTAL OUT =         158.1548

            IN - OUT =          -0.9153              IN - OUT =      -7.8774E-04

 PERCENT DISCREPANCY =          -0.00     PERCENT DISCREPANCY =          -0.00




         TIME SUMMARY AT END OF TIME STEP    2 IN STRESS PERIOD   33
                    SECONDS     MINUTES      HOURS       DAYS        YEARS
                    -----------------------------------------------------------
   TIME STEP LENGTH 2.59200E+05  4320.0      72.000      3.0000     8.21355E-03
 STRESS PERIOD TIME 5.18400E+05  8640.0      144.00      6.0000     1.64271E-02
         TOTAL TIME 8.09568E+07 1.34928E+06  22488.      937.00      2.5654    
 UBDSV1 SAVING           STO-SS ON UNIT   1016 AT TIME STEP      3, STRESS PERIOD     33
 UBDSV1 SAVING           STO-SY ON UNIT   1016 AT TIME STEP      3, STRESS PERIOD     33
 UBDSV1 SAVING     FLOW-JA-FACE ON UNIT   1016 AT TIME STEP      3, STRESS PERIOD     33
 UBDSV06 SAVING              RCH IN MODEL TEST_TRANS       PACKAGE TEST_TRANS      CONNECTED TO MODEL TEST_TRANS       PACKAGE RCHA             ON UNIT   1016 AT TIME STEP      3, STRESS PERIOD     33
 UBDSV06 SAVING              CHD IN MODEL TEST_TRANS       PACKAGE TEST_TRANS      CONNECTED TO MODEL TEST_TRANS       PACKAGE CHD              ON UNIT   1016 AT TIME STEP      3, STRESS PERIOD     33

 HEAD WILL BE SAVED ON UNIT 1017 AT END OF TIME STEP    3, STRESS PERIOD   33


  VOLUME BUDGET FOR ENTIRE MODEL AT END OF TIME STEP    3, STRESS PERIOD  33
  ---------------------------------------------------------------------------------------------------

     CUMULATIVE VOLUME      L**3       RATES FOR THIS TIME STEP      L**3/T          PACKAGE NAME    
     ------------------                 ------------------------                     ----------------

           IN:                                      IN:
           ---                                      ---
              STO-SS =          46.1679                STO-SS =       1.6091E-02     STORAGE         
              STO-SY =       29393.2928                STO-SY =          10.9621     STORAGE         
                 RCH =      149902.2581                   RCH =         143.0141     RCHA            
                 CHD =         227.2620                   CHD =           0.0000     CHD             

            TOTAL IN =      179568.9809              TOTAL IN =         153.9923

          OUT:                                     OUT:
          ----                                     ----
              STO-SS =          34.7739                STO-SS =       1.4245E-02     STORAGE         
              STO-SY =       22511.3590                STO-SY =           8.9222     STORAGE         
                 RCH =           0.0000                   RCH =           0.0000     RCHA            
                 CHD =      157023.7570                   CHD =         145.0537     CHD             

           TOTAL OUT =      179569.8900             TOTAL OUT =         153.9902

            IN - OUT =          -0.9091              IN - OUT =       2.0876E-03

 PERCENT DISCREPANCY =          -0.00     PERCENT DISCREPANCY =           0.00




         TIME SUMMARY AT END OF TIME STEP    3 IN STRESS PERIOD   33
                    SECONDS     MINUTES      HOURS       DAYS        YEARS
                    -----------------------------------------------------------
   TIME STEP LENGTH 2.59200E+05  4320.0      72.000      3.0000     8.21355E-03
 STRESS PERIOD TIME 7.77600E+05  12960.      216.00      9.0000     2.46407E-02
         TOTAL TIME 8.12160E+07 1.35360E+06  22560.      940.00      2.5736    
 UBDSV1 SAVING           STO-SS ON UNIT   1016 AT TIME STEP      4, STRESS PERIOD     33
 UBDSV1 SAVING           STO-SY ON UNIT   1016 AT TIME STEP      4, STRESS PERIOD     33
 UBDSV1 SAVING     FLOW-JA-FACE ON UNIT   1016 AT TIME STEP      4, STRESS PERIOD     33
 UBDSV06 SAVING              RCH IN MODEL TEST_TRANS       PACKAGE TEST_TRANS      CONNECTED TO MODEL TEST_TRANS       PACKAGE RCHA             ON UNIT   1016 AT TIME STEP      4, STRESS PERIOD     33
 UBDSV06 SAVING              CHD IN MODEL TEST_TRANS       PACKAGE TEST_TRANS      CONNECTED TO MODEL TEST_TRANS       PACKAGE CHD              ON UNIT   1016 AT TIME STEP      4, STRESS PERIOD     33

 HEAD WILL BE SAVED ON UNIT 1017 AT END OF TIME STEP    4, STRESS PERIOD   33


  VOLUME BUDGET FOR ENTIRE MODEL AT END OF TIME STEP    4, STRESS PERIOD  33
  ---------------------------------------------------------------------------------------------------

     CUMULATIVE VOLUME      L**3       RATES FOR THIS TIME STEP      L**3/T          PACKAGE NAME    
     ------------------                 ------------------------                     ----------------

           IN:                                      IN:
           ---                                      ---
              STO-SS =          46.2054                STO-SS =       1.2489E-02     STORAGE         
              STO-SY =       29418.6993                STO-SY =           8.4688     STORAGE         
                 RCH =      150331.3004                   RCH =         143.0141     RCHA            
                 CHD =         227.2620                   CHD =           0.0000     CHD             

            TOTAL IN =      180023.4671              TOTAL IN =         151.4954

          OUT:                                     OUT:
          ----                                     ----
              STO-SS =          34.8140                STO-SS =       1.3372E-02     STORAGE         
              STO-SY =       22536.4748                STO-SY =           8.3719     STORAGE         
                 RCH =           0.0000                   RCH =           0.0000     RCHA            
                 CHD =      157453.0821                   CHD =         143.1084     CHD             

           TOTAL OUT =      180024.3709             TOTAL OUT =         151.4937

            IN - OUT =          -0.9039              IN - OUT =       1.7381E-03

 PERCENT DISCREPANCY =          -0.00     PERCENT DISCREPANCY =           0.00




         TIME SUMMARY AT END OF TIME STEP    4 IN STRESS PERIOD   33
                    SECONDS     MINUTES      HOURS       DAYS        YEARS
                    -----------------------------------------------------------
   TIME STEP LENGTH 2.59200E+05  4320.0      72.000      3.0000     8.21355E-03
 STRESS PERIOD TIME 1.03680E+06  17280.      288.00      12.000     3.28542E-02
         TOTAL TIME 8.14752E+07 1.35792E+06  22632.      943.00      2.5818    
 UBDSV1 SAVING           STO-SS ON UNIT   1016 AT TIME STEP      5, STRESS PERIOD     33
 UBDSV1 SAVING           STO-SY ON UNIT   1016 AT TIME STEP      5, STRESS PERIOD     33
 UBDSV1 SAVING     FLOW-JA-FACE ON UNIT   1016 AT TIME STEP      5, STRESS PERIOD     33
 UBDSV06 SAVING              RCH IN MODEL TEST_TRANS       PACKAGE TEST_TRANS      CONNECTED TO MODEL TEST_TRANS       PACKAGE RCHA             ON UNIT   1016 AT TIME STEP      5, STRESS PERIOD     33
 UBDSV06 SAVING              CHD IN MODEL TEST_TRANS       PACKAGE TEST_TRANS      CONNECTED TO MODEL TEST_TRANS       PACKAGE CHD              ON UNIT   1016 AT TIME STEP      5, STRESS PERIOD     33

 HEAD WILL BE SAVED ON UNIT 1017 AT END OF TIME STEP    5, STRESS PERIOD   33


  VOLUME BUDGET FOR ENTIRE MODEL AT END OF TIME STEP    5, STRESS PERIOD  33
  ---------------------------------------------------------------------------------------------------

     CUMULATIVE VOLUME      L**3       RATES FOR THIS TIME STEP      L**3/T          PACKAGE NAME    
     ------------------                 ------------------------                     ----------------

           IN:                                      IN:
           ---                                      ---
              STO-SS =          46.2352                STO-SS =       9.9467E-03     STORAGE         
              STO-SY =       29438.8727                STO-SY =           6.7245     STORAGE         
                 RCH =      150760.3426                   RCH =         143.0141     RCHA            
                 CHD =         227.2620                   CHD =           0.0000     CHD             

            TOTAL IN =      180472.7125              TOTAL IN =         149.7485

          OUT:                                     OUT:
          ----                                     ----
              STO-SS =          34.8518                STO-SS =       1.2574E-02     STORAGE         
              STO-SY =       22560.0830                STO-SY =           7.8694     STORAGE         
                 RCH =           0.0000                   RCH =           0.0000     RCHA            
                 CHD =      157878.6747                   CHD =         141.8642     CHD             

           TOTAL OUT =      180473.6095             TOTAL OUT =         149.7462

            IN - OUT =          -0.8970              IN - OUT =       2.2988E-03

 PERCENT DISCREPANCY =          -0.00     PERCENT DISCREPANCY =           0.00




         TIME SUMMARY AT END OF TIME STEP    5 IN STRESS PERIOD   33
                    SECONDS     MINUTES      HOURS       DAYS        YEARS
                    -----------------------------------------------------------
   TIME STEP LENGTH 2.59200E+05  4320.0      72.000      3.0000     8.21355E-03
 STRESS PERIOD TIME 1.29600E+06  21600.      360.00      15.000     4.10678E-02
         TOTAL TIME 8.17344E+07 1.36224E+06  22704.      946.00      2.5900    
 UBDSV1 SAVING           STO-SS ON UNIT   1016 AT TIME STEP      6, STRESS PERIOD     33
 UBDSV1 SAVING           STO-SY ON UNIT   1016 AT TIME STEP      6, STRESS PERIOD     33
 UBDSV1 SAVING     FLOW-JA-FACE ON UNIT   1016 AT TIME STEP      6, STRESS PERIOD     33
 UBDSV06 SAVING              RCH IN MODEL TEST_TRANS       PACKAGE TEST_TRANS      CONNECTED TO MODEL TEST_TRANS       PACKAGE RCHA             ON UNIT   1016 AT TIME STEP      6, STRESS PERIOD     33
 UBDSV06 SAVING              CHD IN MODEL TEST_TRANS       PACKAGE TEST_TRANS      CONNECTED TO MODEL TEST_TRANS       PACKAGE CHD              ON UNIT   1016 AT TIME STEP      6, STRESS PERIOD     33

 HEAD WILL BE SAVED ON UNIT 1017 AT END OF TIME STEP    6, STRESS PERIOD   33


  VOLUME BUDGET FOR ENTIRE MODEL AT END OF TIME STEP    6, STRESS PERIOD  33
  ---------------------------------------------------------------------------------------------------

     CUMULATIVE VOLUME      L**3       RATES FOR THIS TIME STEP      L**3/T          PACKAGE NAME    
     ------------------                 ------------------------                     ----------------

           IN:                                      IN:
           ---                                      ---
              STO-SS =          46.2593                STO-SS =       8.0211E-03     STORAGE         
              STO-SY =       29455.1087                STO-SY =           5.4120     STORAGE         
                 RCH =      151189.3848                   RCH =         143.0141     RCHA            
                 CHD =         227.2620                   CHD =           0.0000     CHD             

            TOTAL IN =      180918.0148              TOTAL IN =         148.4341

          OUT:                                     OUT:
          ----                                     ----
              STO-SS =          34.8873                STO-SS =       1.1838E-02     STORAGE         
              STO-SY =       22582.3012                STO-SY =           7.4061     STORAGE         
                 RCH =           0.0000                   RCH =           0.0000     RCHA            
                 CHD =      158301.6412                   CHD =         140.9888     CHD             

           TOTAL OUT =      180918.8297             TOTAL OUT =         148.4067

            IN - OUT =          -0.8149              IN - OUT =       2.7368E-02

 PERCENT DISCREPANCY =          -0.00     PERCENT DISCREPANCY =           0.02




         TIME SUMMARY AT END OF TIME STEP    6 IN STRESS PERIOD   33
                    SECONDS     MINUTES      HOURS       DAYS        YEARS
                    -----------------------------------------------------------
   TIME STEP LENGTH 2.59200E+05  4320.0      72.000      3.0000     8.21355E-03
 STRESS PERIOD TIME 1.55520E+06  25920.      432.00      18.000     4.92813E-02
         TOTAL TIME 8.19936E+07 1.36656E+06  22776.      949.00      2.5982    
 UBDSV1 SAVING           STO-SS ON UNIT   1016 AT TIME STEP      7, STRESS PERIOD     33
 UBDSV1 SAVING           STO-SY ON UNIT   1016 AT TIME STEP      7, STRESS PERIOD     33
 UBDSV1 SAVING     FLOW-JA-FACE ON UNIT   1016 AT TIME STEP      7, STRESS PERIOD     33
 UBDSV06 SAVING              RCH IN MODEL TEST_TRANS       PACKAGE TEST_TRANS      CONNECTED TO MODEL TEST_TRANS       PACKAGE RCHA             ON UNIT   1016 AT TIME STEP      7, STRESS PERIOD     33
 UBDSV06 SAVING              CHD IN MODEL TEST_TRANS       PACKAGE TEST_TRANS      CONNECTED TO MODEL TEST_TRANS       PACKAGE CHD              ON UNIT   1016 AT TIME STEP      7, STRESS PERIOD     33

 HEAD WILL BE SAVED ON UNIT 1017 AT END OF TIME STEP    7, STRESS PERIOD   33


  VOLUME BUDGET FOR ENTIRE MODEL AT END OF TIME STEP    7, STRESS PERIOD  33
  ---------------------------------------------------------------------------------------------------

     CUMULATIVE VOLUME      L**3       RATES FOR THIS TIME STEP      L**3/T          PACKAGE NAME    
     ------------------                 ------------------------                     ----------------

           IN:                                      IN:
           ---                                      ---
              STO-SS =          46.2786                STO-SS =       6.4496E-03     STORAGE         
              STO-SY =       29468.1488                STO-SY =           4.3467     STORAGE         
                 RCH =      151618.4271                   RCH =         143.0141     RCHA            
                 CHD =         227.2620                   CHD =           0.0000     CHD             

            TOTAL IN =      181360.1165              TOTAL IN =         147.3672

          OUT:                                     OUT:
          ----                                     ----
              STO-SS =          34.9208                STO-SS =       1.1178E-02     STORAGE         
              STO-SY =       22603.2753                STO-SY =           6.9914     STORAGE         
                 RCH =           0.0000                   RCH =           0.0000     RCHA            
                 CHD =      158722.6741                   CHD =         140.3443     CHD             

           TOTAL OUT =      181360.8702             TOTAL OUT =         147.3468

            IN - OUT =          -0.7536              IN - OUT =       2.0408E-02

 PERCENT DISCREPANCY =          -0.00     PERCENT DISCREPANCY =           0.01




         TIME SUMMARY AT END OF TIME STEP    7 IN STRESS PERIOD   33
                    SECONDS     MINUTES      HOURS       DAYS        YEARS
                    -----------------------------------------------------------
   TIME STEP LENGTH 2.59200E+05  4320.0      72.000      3.0000     8.21355E-03
 STRESS PERIOD TIME 1.81440E+06  30240.      504.00      21.000     5.74949E-02
         TOTAL TIME 8.22528E+07 1.37088E+06  22848.      952.00      2.6064    
 UBDSV1 SAVING           STO-SS ON UNIT   1016 AT TIME STEP      8, STRESS PERIOD     33
 UBDSV1 SAVING           STO-SY ON UNIT   1016 AT TIME STEP      8, STRESS PERIOD     33
 UBDSV1 SAVING     FLOW-JA-FACE ON UNIT   1016 AT TIME STEP      8, STRESS PERIOD     33
 UBDSV06 SAVING              RCH IN MODEL TEST_TRANS       PACKAGE TEST_TRANS      CONNECTED TO MODEL TEST_TRANS       PACKAGE RCHA             ON UNIT   1016 AT TIME STEP      8, STRESS PERIOD     33
 UBDSV06 SAVING              CHD IN MODEL TEST_TRANS       PACKAGE TEST_TRANS      CONNECTED TO MODEL TEST_TRANS       PACKAGE CHD              ON UNIT   1016 AT TIME STEP      8, STRESS PERIOD     33

 HEAD WILL BE SAVED ON UNIT 1017 AT END OF TIME STEP    8, STRESS PERIOD   33


  VOLUME BUDGET FOR ENTIRE MODEL AT END OF TIME STEP    8, STRESS PERIOD  33
  ---------------------------------------------------------------------------------------------------

     CUMULATIVE VOLUME      L**3       RATES FOR THIS TIME STEP      L**3/T          PACKAGE NAME    
     ------------------                 ------------------------                     ----------------

           IN:                                      IN:
           ---                                      ---
              STO-SS =          46.2941                STO-SS =       5.1697E-03     STORAGE         
              STO-SY =       29478.5954                STO-SY =           3.4822     STORAGE         
                 RCH =      152047.4693                   RCH =         143.0141     RCHA            
                 CHD =         227.2620                   CHD =           0.0000     CHD             

            TOTAL IN =      181799.6209              TOTAL IN =         146.5015

          OUT:                                     OUT:
          ----                                     ----
              STO-SS =          34.9526                STO-SS =       1.0588E-02     STORAGE         
              STO-SY =       22623.1399                STO-SY =           6.6215     STORAGE         
                 RCH =           0.0000                   RCH =           0.0000     RCHA            
                 CHD =      159142.2355                   CHD =         139.8538     CHD             

           TOTAL OUT =      181800.3280             TOTAL OUT =         146.4859

            IN - OUT =          -0.7071              IN - OUT =       1.5520E-02

 PERCENT DISCREPANCY =          -0.00     PERCENT DISCREPANCY =           0.01




         TIME SUMMARY AT END OF TIME STEP    8 IN STRESS PERIOD   33
                    SECONDS     MINUTES      HOURS       DAYS        YEARS
                    -----------------------------------------------------------
   TIME STEP LENGTH 2.59200E+05  4320.0      72.000      3.0000     8.21355E-03
 STRESS PERIOD TIME 2.07360E+06  34560.      576.00      24.000     6.57084E-02
         TOTAL TIME 8.25120E+07 1.37520E+06  22920.      955.00      2.6146    
 UBDSV1 SAVING           STO-SS ON UNIT   1016 AT TIME STEP      9, STRESS PERIOD     33
 UBDSV1 SAVING           STO-SY ON UNIT   1016 AT TIME STEP      9, STRESS PERIOD     33
 UBDSV1 SAVING     FLOW-JA-FACE ON UNIT   1016 AT TIME STEP      9, STRESS PERIOD     33
 UBDSV06 SAVING              RCH IN MODEL TEST_TRANS       PACKAGE TEST_TRANS      CONNECTED TO MODEL TEST_TRANS       PACKAGE RCHA             ON UNIT   1016 AT TIME STEP      9, STRESS PERIOD     33
 UBDSV06 SAVING              CHD IN MODEL TEST_TRANS       PACKAGE TEST_TRANS      CONNECTED TO MODEL TEST_TRANS       PACKAGE CHD              ON UNIT   1016 AT TIME STEP      9, STRESS PERIOD     33

 HEAD WILL BE SAVED ON UNIT 1017 AT END OF TIME STEP    9, STRESS PERIOD   33


  VOLUME BUDGET FOR ENTIRE MODEL AT END OF TIME STEP    9, STRESS PERIOD  33
  ---------------------------------------------------------------------------------------------------

     CUMULATIVE VOLUME      L**3       RATES FOR THIS TIME STEP      L**3/T          PACKAGE NAME    
     ------------------                 ------------------------                     ----------------

           IN:                                      IN:
           ---                                      ---
              STO-SS =          46.3065                STO-SS =       4.1116E-03     STORAGE         
              STO-SY =       29486.9038                STO-SY =           2.7695     STORAGE         
                 RCH =      152476.5116                   RCH =         143.0141     RCHA            
                 CHD =         227.2620                   CHD =           0.0000     CHD             

            TOTAL IN =      182236.9839              TOTAL IN =         145.7877

          OUT:                                     OUT:
          ----                                     ----
              STO-SS =          34.9828                STO-SS =       1.0064E-02     STORAGE         
              STO-SY =       22642.0184                STO-SY =           6.2928     STORAGE         
                 RCH =           0.0000                   RCH =           0.0000     RCHA            
                 CHD =      159560.6541                   CHD =         139.4729     CHD             

           TOTAL OUT =      182237.6552             TOTAL OUT =         145.7758

            IN - OUT =          -0.6713              IN - OUT =       1.1922E-02

 PERCENT DISCREPANCY =          -0.00     PERCENT DISCREPANCY =           0.01




         TIME SUMMARY AT END OF TIME STEP    9 IN STRESS PERIOD   33
                    SECONDS     MINUTES      HOURS       DAYS        YEARS
                    -----------------------------------------------------------
   TIME STEP LENGTH 2.59200E+05  4320.0      72.000      3.0000     8.21355E-03
 STRESS PERIOD TIME 2.33280E+06  38880.      648.00      27.000     7.39220E-02
         TOTAL TIME 8.27712E+07 1.37952E+06  22992.      958.00      2.6229    
 UBDSV1 SAVING           STO-SS ON UNIT   1016 AT TIME STEP     10, STRESS PERIOD     33
 UBDSV1 SAVING           STO-SY ON UNIT   1016 AT TIME STEP     10, STRESS PERIOD     33
 UBDSV1 SAVING     FLOW-JA-FACE ON UNIT   1016 AT TIME STEP     10, STRESS PERIOD     33
 UBDSV06 SAVING              RCH IN MODEL TEST_TRANS       PACKAGE TEST_TRANS      CONNECTED TO MODEL TEST_TRANS       PACKAGE RCHA             ON UNIT   1016 AT TIME STEP     10, STRESS PERIOD     33
 UBDSV06 SAVING              CHD IN MODEL TEST_TRANS       PACKAGE TEST_TRANS      CONNECTED TO MODEL TEST_TRANS       PACKAGE CHD              ON UNIT   1016 AT TIME STEP     10, STRESS PERIOD     33

 HEAD WILL BE SAVED ON UNIT 1017 AT END OF TIME STEP   10, STRESS PERIOD   33


  VOLUME BUDGET FOR ENTIRE MODEL AT END OF TIME STEP   10, STRESS PERIOD  33
  ---------------------------------------------------------------------------------------------------

     CUMULATIVE VOLUME      L**3       RATES FOR THIS TIME STEP      L**3/T          PACKAGE NAME    
     ------------------                 ------------------------                     ----------------

           IN:                                      IN:
           ---                                      ---
              STO-SS =          46.3162                STO-SS =       3.2388E-03     STORAGE         
              STO-SY =       29493.4512                STO-SY =           2.1824     STORAGE         
                 RCH =      152905.5538                   RCH =         143.0141     RCHA            
                 CHD =         227.2620                   CHD =           0.0000     CHD             

            TOTAL IN =      182672.5832              TOTAL IN =         145.1998

          OUT:                                     OUT:
          ----                                     ----
              STO-SS =          35.0116                STO-SS =       9.6077E-03     STORAGE         
              STO-SY =       22660.0409                STO-SY =           6.0075     STORAGE         
                 RCH =           0.0000                   RCH =           0.0000     RCHA            
                 CHD =      159978.1744                   CHD =         139.1735     CHD             

           TOTAL OUT =      182673.2270             TOTAL OUT =         145.1906

            IN - OUT =          -0.6438              IN - OUT =       9.1772E-03

 PERCENT DISCREPANCY =          -0.00     PERCENT DISCREPANCY =           0.01




         TIME SUMMARY AT END OF TIME STEP   10 IN STRESS PERIOD   33
                    SECONDS     MINUTES      HOURS       DAYS        YEARS
                    -----------------------------------------------------------
   TIME STEP LENGTH 2.59200E+05  4320.0      72.000      3.0000     8.21355E-03
 STRESS PERIOD TIME 2.59200E+06  43200.      720.00      30.000     8.21355E-02
         TOTAL TIME 8.30304E+07 1.38384E+06  23064.      961.00      2.6311    

 OUTPUT CONTROL FOR STRESS PERIOD 34 IS REPEATED USING SETTINGS FROM A PREVIOUS STRESS PERIOD.


 STRESS PERIOD 34 IS TRANSIENT


                 RECHARGE =  0.2191780E-02
 UBDSV1 SAVING           STO-SS ON UNIT   1016 AT TIME STEP      1, STRESS PERIOD     34
 UBDSV1 SAVING           STO-SY ON UNIT   1016 AT TIME STEP      1, STRESS PERIOD     34
 UBDSV1 SAVING     FLOW-JA-FACE ON UNIT   1016 AT TIME STEP      1, STRESS PERIOD     34
 UBDSV06 SAVING              RCH IN MODEL TEST_TRANS       PACKAGE TEST_TRANS      CONNECTED TO MODEL TEST_TRANS       PACKAGE RCHA             ON UNIT   1016 AT TIME STEP      1, STRESS PERIOD     34
 UBDSV06 SAVING              CHD IN MODEL TEST_TRANS       PACKAGE TEST_TRANS      CONNECTED TO MODEL TEST_TRANS       PACKAGE CHD              ON UNIT   1016 AT TIME STEP      1, STRESS PERIOD     34

 HEAD WILL BE SAVED ON UNIT 1017 AT END OF TIME STEP    1, STRESS PERIOD   34


  VOLUME BUDGET FOR ENTIRE MODEL AT END OF TIME STEP    1, STRESS PERIOD  34
  ---------------------------------------------------------------------------------------------------

     CUMULATIVE VOLUME      L**3       RATES FOR THIS TIME STEP      L**3/T          PACKAGE NAME    
     ------------------                 ------------------------                     ----------------

           IN:                                      IN:
           ---                                      ---
              STO-SS =          46.4282                STO-SS =       3.7335E-02     STORAGE         
              STO-SY =       29572.4307                STO-SY =          26.3265     STORAGE         
                 RCH =      153477.6084                   RCH =         190.6849     RCHA            
                 CHD =         227.2620                   CHD =           0.0000     CHD             

            TOTAL IN =      183323.7293              TOTAL IN =         217.0487

          OUT:                                     OUT:
          ----                                     ----
              STO-SS =          35.2074                STO-SS =       6.5279E-02     STORAGE         
              STO-SY =       22783.9779                STO-SY =          41.3123     STORAGE         
                 RCH =           0.0000                   RCH =           0.0000     RCHA            
                 CHD =      160505.2440                   CHD =         175.6899     CHD             

           TOTAL OUT =      183324.4293             TOTAL OUT =         217.0674

            IN - OUT =          -0.7000              IN - OUT =      -1.8735E-02

 PERCENT DISCREPANCY =          -0.00     PERCENT DISCREPANCY =          -0.01




         TIME SUMMARY AT END OF TIME STEP    1 IN STRESS PERIOD   34
                    SECONDS     MINUTES      HOURS       DAYS        YEARS
                    -----------------------------------------------------------
   TIME STEP LENGTH 2.59200E+05  4320.0      72.000      3.0000     8.21355E-03
 STRESS PERIOD TIME 2.59200E+05  4320.0      72.000      3.0000     8.21355E-03
         TOTAL TIME 8.32896E+07 1.38816E+06  23136.      964.00      2.6393    
 UBDSV1 SAVING           STO-SS ON UNIT   1016 AT TIME STEP      2, STRESS PERIOD     34
 UBDSV1 SAVING           STO-SY ON UNIT   1016 AT TIME STEP      2, STRESS PERIOD     34
 UBDSV1 SAVING     FLOW-JA-FACE ON UNIT   1016 AT TIME STEP      2, STRESS PERIOD     34
 UBDSV06 SAVING              RCH IN MODEL TEST_TRANS       PACKAGE TEST_TRANS      CONNECTED TO MODEL TEST_TRANS       PACKAGE RCHA             ON UNIT   1016 AT TIME STEP      2, STRESS PERIOD     34
 UBDSV06 SAVING              CHD IN MODEL TEST_TRANS       PACKAGE TEST_TRANS      CONNECTED TO MODEL TEST_TRANS       PACKAGE CHD              ON UNIT   1016 AT TIME STEP      2, STRESS PERIOD     34

 HEAD WILL BE SAVED ON UNIT 1017 AT END OF TIME STEP    2, STRESS PERIOD   34


  VOLUME BUDGET FOR ENTIRE MODEL AT END OF TIME STEP    2, STRESS PERIOD  34
  ---------------------------------------------------------------------------------------------------

     CUMULATIVE VOLUME      L**3       RATES FOR THIS TIME STEP      L**3/T          PACKAGE NAME    
     ------------------                 ------------------------                     ----------------

           IN:                                      IN:
           ---                                      ---
              STO-SS =          46.4809                STO-SS =       1.7570E-02     STORAGE         
              STO-SY =       29609.3331                STO-SY =          12.3008     STORAGE         
                 RCH =      154049.6630                   RCH =         190.6849     RCHA            
                 CHD =         227.2620                   CHD =           0.0000     CHD             

            TOTAL IN =      183932.7390              TOTAL IN =         203.0032

          OUT:                                     OUT:
          ----                                     ----
              STO-SS =          35.3915                STO-SS =       6.1364E-02     STORAGE         
              STO-SY =       22900.1693                STO-SY =          38.7305     STORAGE         
                 RCH =           0.0000                   RCH =           0.0000     RCHA            
                 CHD =      160997.8887                   CHD =         164.2149     CHD             

           TOTAL OUT =      183933.4496             TOTAL OUT =         203.0068

            IN - OUT =          -0.7106              IN - OUT =      -3.5299E-03

 PERCENT DISCREPANCY =          -0.00     PERCENT DISCREPANCY =          -0.00




         TIME SUMMARY AT END OF TIME STEP    2 IN STRESS PERIOD   34
                    SECONDS     MINUTES      HOURS       DAYS        YEARS
                    -----------------------------------------------------------
   TIME STEP LENGTH 2.59200E+05  4320.0      72.000      3.0000     8.21355E-03
 STRESS PERIOD TIME 5.18400E+05  8640.0      144.00      6.0000     1.64271E-02
         TOTAL TIME 8.35488E+07 1.39248E+06  23208.      967.00      2.6475    
 UBDSV1 SAVING           STO-SS ON UNIT   1016 AT TIME STEP      3, STRESS PERIOD     34
 UBDSV1 SAVING           STO-SY ON UNIT   1016 AT TIME STEP      3, STRESS PERIOD     34
 UBDSV1 SAVING     FLOW-JA-FACE ON UNIT   1016 AT TIME STEP      3, STRESS PERIOD     34
 UBDSV06 SAVING              RCH IN MODEL TEST_TRANS       PACKAGE TEST_TRANS      CONNECTED TO MODEL TEST_TRANS       PACKAGE RCHA             ON UNIT   1016 AT TIME STEP      3, STRESS PERIOD     34
 UBDSV06 SAVING              CHD IN MODEL TEST_TRANS       PACKAGE TEST_TRANS      CONNECTED TO MODEL TEST_TRANS       PACKAGE CHD              ON UNIT   1016 AT TIME STEP      3, STRESS PERIOD     34

 HEAD WILL BE SAVED ON UNIT 1017 AT END OF TIME STEP    3, STRESS PERIOD   34


  VOLUME BUDGET FOR ENTIRE MODEL AT END OF TIME STEP    3, STRESS PERIOD  34
  ---------------------------------------------------------------------------------------------------

     CUMULATIVE VOLUME      L**3       RATES FOR THIS TIME STEP      L**3/T          PACKAGE NAME    
     ------------------                 ------------------------                     ----------------

           IN:                                      IN:
           ---                                      ---
              STO-SS =          46.5088                STO-SS =       9.3043E-03     STORAGE         
              STO-SY =       29628.7847                STO-SY =           6.4839     STORAGE         
                 RCH =      154621.7175                   RCH =         190.6849     RCHA            
                 CHD =         227.2620                   CHD =           0.0000     CHD             

            TOTAL IN =      184524.2731              TOTAL IN =         197.1780

          OUT:                                     OUT:
          ----                                     ----
              STO-SS =          35.5676                STO-SS =       5.8678E-02     STORAGE         
              STO-SY =       23011.1002                STO-SY =          36.9770     STORAGE         
                 RCH =           0.0000                   RCH =           0.0000     RCHA            
                 CHD =      161478.3170                   CHD =         160.1428     CHD             

           TOTAL OUT =      184524.9848             TOTAL OUT =         197.1784

            IN - OUT =          -0.7117              IN - OUT =      -3.6673E-04

 PERCENT DISCREPANCY =          -0.00     PERCENT DISCREPANCY =          -0.00




         TIME SUMMARY AT END OF TIME STEP    3 IN STRESS PERIOD   34
                    SECONDS     MINUTES      HOURS       DAYS        YEARS
                    -----------------------------------------------------------
   TIME STEP LENGTH 2.59200E+05  4320.0      72.000      3.0000     8.21355E-03
 STRESS PERIOD TIME 7.77600E+05  12960.      216.00      9.0000     2.46407E-02
         TOTAL TIME 8.38080E+07 1.39680E+06  23280.      970.00      2.6557    
 UBDSV1 SAVING           STO-SS ON UNIT   1016 AT TIME STEP      4, STRESS PERIOD     34
 UBDSV1 SAVING           STO-SY ON UNIT   1016 AT TIME STEP      4, STRESS PERIOD     34
 UBDSV1 SAVING     FLOW-JA-FACE ON UNIT   1016 AT TIME STEP      4, STRESS PERIOD     34
 UBDSV06 SAVING              RCH IN MODEL TEST_TRANS       PACKAGE TEST_TRANS      CONNECTED TO MODEL TEST_TRANS       PACKAGE RCHA             ON UNIT   1016 AT TIME STEP      4, STRESS PERIOD     34
 UBDSV06 SAVING              CHD IN MODEL TEST_TRANS       PACKAGE TEST_TRANS      CONNECTED TO MODEL TEST_TRANS       PACKAGE CHD              ON UNIT   1016 AT TIME STEP      4, STRESS PERIOD     34

 HEAD WILL BE SAVED ON UNIT 1017 AT END OF TIME STEP    4, STRESS PERIOD   34


  VOLUME BUDGET FOR ENTIRE MODEL AT END OF TIME STEP    4, STRESS PERIOD  34
  ---------------------------------------------------------------------------------------------------

     CUMULATIVE VOLUME      L**3       RATES FOR THIS TIME STEP      L**3/T          PACKAGE NAME    
     ------------------                 ------------------------                     ----------------

           IN:                                      IN:
           ---                                      ---
              STO-SS =          46.5235                STO-SS =       4.8871E-03     STORAGE         
              STO-SY =       29638.9867                STO-SY =           3.4007     STORAGE         
                 RCH =      155193.7721                   RCH =         190.6849     RCHA            
                 CHD =         227.2620                   CHD =           0.0000     CHD             

            TOTAL IN =      185106.5444              TOTAL IN =         194.0904

          OUT:                                     OUT:
          ----                                     ----
              STO-SS =          35.7376                STO-SS =       5.6683E-02     STORAGE         
              STO-SY =       23118.1506                STO-SY =          35.6835     STORAGE         
                 RCH =           0.0000                   RCH =           0.0000     RCHA            
                 CHD =      161953.3696                   CHD =         158.3509     CHD             

           TOTAL OUT =      185107.2578             TOTAL OUT =         194.0910

            IN - OUT =          -0.7135              IN - OUT =      -5.9987E-04

 PERCENT DISCREPANCY =          -0.00     PERCENT DISCREPANCY =          -0.00




         TIME SUMMARY AT END OF TIME STEP    4 IN STRESS PERIOD   34
                    SECONDS     MINUTES      HOURS       DAYS        YEARS
                    -----------------------------------------------------------
   TIME STEP LENGTH 2.59200E+05  4320.0      72.000      3.0000     8.21355E-03
 STRESS PERIOD TIME 1.03680E+06  17280.      288.00      12.000     3.28542E-02
         TOTAL TIME 8.40672E+07 1.40112E+06  23352.      973.00      2.6639    
 UBDSV1 SAVING           STO-SS ON UNIT   1016 AT TIME STEP      5, STRESS PERIOD     34
 UBDSV1 SAVING           STO-SY ON UNIT   1016 AT TIME STEP      5, STRESS PERIOD     34
 UBDSV1 SAVING     FLOW-JA-FACE ON UNIT   1016 AT TIME STEP      5, STRESS PERIOD     34
 UBDSV06 SAVING              RCH IN MODEL TEST_TRANS       PACKAGE TEST_TRANS      CONNECTED TO MODEL TEST_TRANS       PACKAGE RCHA             ON UNIT   1016 AT TIME STEP      5, STRESS PERIOD     34
 UBDSV06 SAVING              CHD IN MODEL TEST_TRANS       PACKAGE TEST_TRANS      CONNECTED TO MODEL TEST_TRANS       PACKAGE CHD              ON UNIT   1016 AT TIME STEP      5, STRESS PERIOD     34

 HEAD WILL BE SAVED ON UNIT 1017 AT END OF TIME STEP    5, STRESS PERIOD   34


  VOLUME BUDGET FOR ENTIRE MODEL AT END OF TIME STEP    5, STRESS PERIOD  34
  ---------------------------------------------------------------------------------------------------

     CUMULATIVE VOLUME      L**3       RATES FOR THIS TIME STEP      L**3/T          PACKAGE NAME    
     ------------------                 ------------------------                     ----------------

           IN:                                      IN:
           ---                                      ---
              STO-SS =          46.5304                STO-SS =       2.2984E-03     STORAGE         
              STO-SY =       29643.7928                STO-SY =           1.6020     STORAGE         
                 RCH =      155765.8267                   RCH =         190.6849     RCHA            
                 CHD =         227.2620                   CHD =           0.0000     CHD             

            TOTAL IN =      185683.4119              TOTAL IN =         192.2892

          OUT:                                     OUT:
          ----                                     ----
              STO-SS =          35.9033                STO-SS =       5.5219E-02     STORAGE         
              STO-SY =       23222.3750                STO-SY =          34.7415     STORAGE         
                 RCH =           0.0000                   RCH =           0.0000     RCHA            
                 CHD =      162425.8498                   CHD =         157.4934     CHD             

           TOTAL OUT =      185684.1280             TOTAL OUT =         192.2901

            IN - OUT =          -0.7161              IN - OUT =      -8.8814E-04

 PERCENT DISCREPANCY =          -0.00     PERCENT DISCREPANCY =          -0.00




         TIME SUMMARY AT END OF TIME STEP    5 IN STRESS PERIOD   34
                    SECONDS     MINUTES      HOURS       DAYS        YEARS
                    -----------------------------------------------------------
   TIME STEP LENGTH 2.59200E+05  4320.0      72.000      3.0000     8.21355E-03
 STRESS PERIOD TIME 1.29600E+06  21600.      360.00      15.000     4.10678E-02
         TOTAL TIME 8.43264E+07 1.40544E+06  23424.      976.00      2.6721    
 UBDSV1 SAVING           STO-SS ON UNIT   1016 AT TIME STEP      6, STRESS PERIOD     34
 UBDSV1 SAVING           STO-SY ON UNIT   1016 AT TIME STEP      6, STRESS PERIOD     34
 UBDSV1 SAVING     FLOW-JA-FACE ON UNIT   1016 AT TIME STEP      6, STRESS PERIOD     34
 UBDSV06 SAVING              RCH IN MODEL TEST_TRANS       PACKAGE TEST_TRANS      CONNECTED TO MODEL TEST_TRANS       PACKAGE RCHA             ON UNIT   1016 AT TIME STEP      6, STRESS PERIOD     34
 UBDSV06 SAVING              CHD IN MODEL TEST_TRANS       PACKAGE TEST_TRANS      CONNECTED TO MODEL TEST_TRANS       PACKAGE CHD              ON UNIT   1016 AT TIME STEP      6, STRESS PERIOD     34

 HEAD WILL BE SAVED ON UNIT 1017 AT END OF TIME STEP    6, STRESS PERIOD   34


  VOLUME BUDGET FOR ENTIRE MODEL AT END OF TIME STEP    6, STRESS PERIOD  34
  ---------------------------------------------------------------------------------------------------

     CUMULATIVE VOLUME      L**3       RATES FOR THIS TIME STEP      L**3/T          PACKAGE NAME    
     ------------------                 ------------------------                     ----------------

           IN:                                      IN:
           ---                                      ---
              STO-SS =          46.5329                STO-SS =       8.4293E-04     STORAGE         
              STO-SY =       29645.5642                STO-SY =           0.5905     STORAGE         
                 RCH =      156337.8813                   RCH =         190.6849     RCHA            
                 CHD =         227.2620                   CHD =           0.0000     CHD             

            TOTAL IN =      186257.2405              TOTAL IN =         191.2762

          OUT:                                     OUT:
          ----                                     ----
              STO-SS =          36.0660                STO-SS =       5.4249E-02     STORAGE         
              STO-SY =       23324.7536                STO-SY =          34.1262     STORAGE         
                 RCH =           0.0000                   RCH =           0.0000     RCHA            
                 CHD =      162897.1399                   CHD =         157.0967     CHD             

           TOTAL OUT =      186257.9595             TOTAL OUT =         191.2771

            IN - OUT =          -0.7190              IN - OUT =      -9.4597E-04

 PERCENT DISCREPANCY =          -0.00     PERCENT DISCREPANCY =          -0.00




         TIME SUMMARY AT END OF TIME STEP    6 IN STRESS PERIOD   34
                    SECONDS     MINUTES      HOURS       DAYS        YEARS
                    -----------------------------------------------------------
   TIME STEP LENGTH 2.59200E+05  4320.0      72.000      3.0000     8.21355E-03
 STRESS PERIOD TIME 1.55520E+06  25920.      432.00      18.000     4.92813E-02
         TOTAL TIME 8.45856E+07 1.40976E+06  23496.      979.00      2.6804    
 UBDSV1 SAVING           STO-SS ON UNIT   1016 AT TIME STEP      7, STRESS PERIOD     34
 UBDSV1 SAVING           STO-SY ON UNIT   1016 AT TIME STEP      7, STRESS PERIOD     34
 UBDSV1 SAVING     FLOW-JA-FACE ON UNIT   1016 AT TIME STEP      7, STRESS PERIOD     34
 UBDSV06 SAVING              RCH IN MODEL TEST_TRANS       PACKAGE TEST_TRANS      CONNECTED TO MODEL TEST_TRANS       PACKAGE RCHA             ON UNIT   1016 AT TIME STEP      7, STRESS PERIOD     34
 UBDSV06 SAVING              CHD IN MODEL TEST_TRANS       PACKAGE TEST_TRANS      CONNECTED TO MODEL TEST_TRANS       PACKAGE CHD              ON UNIT   1016 AT TIME STEP      7, STRESS PERIOD     34

 HEAD WILL BE SAVED ON UNIT 1017 AT END OF TIME STEP    7, STRESS PERIOD   34


  VOLUME BUDGET FOR ENTIRE MODEL AT END OF TIME STEP    7, STRESS PERIOD  34
  ---------------------------------------------------------------------------------------------------

     CUMULATIVE VOLUME      L**3       RATES FOR THIS TIME STEP      L**3/T          PACKAGE NAME    
     ------------------                 ------------------------                     ----------------

           IN:                                      IN:
           ---                                      ---
              STO-SS =          46.5333                STO-SS =       1.4533E-04     STORAGE         
              STO-SY =       29645.8724                STO-SY =           0.1027     STORAGE         
                 RCH =      156909.9359                   RCH =         190.6849     RCHA            
                 CHD =         227.2620                   CHD =           0.0000     CHD             

            TOTAL IN =      186829.6037              TOTAL IN =         190.7877

          OUT:                                     OUT:
          ----                                     ----
              STO-SS =          36.2270                STO-SS =       5.3658E-02     STORAGE         
              STO-SY =       23426.0515                STO-SY =          33.7660     STORAGE         
                 RCH =           0.0000                   RCH =           0.0000     RCHA            
                 CHD =      163368.0633                   CHD =         156.9745     CHD             

           TOTAL OUT =      186830.3418             TOTAL OUT =         190.7941

            IN - OUT =          -0.7381              IN - OUT =      -6.3843E-03

 PERCENT DISCREPANCY =          -0.00     PERCENT DISCREPANCY =          -0.00




         TIME SUMMARY AT END OF TIME STEP    7 IN STRESS PERIOD   34
                    SECONDS     MINUTES      HOURS       DAYS        YEARS
                    -----------------------------------------------------------
   TIME STEP LENGTH 2.59200E+05  4320.0      72.000      3.0000     8.21355E-03
 STRESS PERIOD TIME 1.81440E+06  30240.      504.00      21.000     5.74949E-02
         TOTAL TIME 8.48448E+07 1.41408E+06  23568.      982.00      2.6886    
 UBDSV1 SAVING           STO-SS ON UNIT   1016 AT TIME STEP      8, STRESS PERIOD     34
 UBDSV1 SAVING           STO-SY ON UNIT   1016 AT TIME STEP      8, STRESS PERIOD     34
 UBDSV1 SAVING     FLOW-JA-FACE ON UNIT   1016 AT TIME STEP      8, STRESS PERIOD     34
 UBDSV06 SAVING              RCH IN MODEL TEST_TRANS       PACKAGE TEST_TRANS      CONNECTED TO MODEL TEST_TRANS       PACKAGE RCHA             ON UNIT   1016 AT TIME STEP      8, STRESS PERIOD     34
 UBDSV06 SAVING              CHD IN MODEL TEST_TRANS       PACKAGE TEST_TRANS      CONNECTED TO MODEL TEST_TRANS       PACKAGE CHD              ON UNIT   1016 AT TIME STEP      8, STRESS PERIOD     34

 HEAD WILL BE SAVED ON UNIT 1017 AT END OF TIME STEP    8, STRESS PERIOD   34


  VOLUME BUDGET FOR ENTIRE MODEL AT END OF TIME STEP    8, STRESS PERIOD  34
  ---------------------------------------------------------------------------------------------------

     CUMULATIVE VOLUME      L**3       RATES FOR THIS TIME STEP      L**3/T          PACKAGE NAME    
     ------------------                 ------------------------                     ----------------

           IN:                                      IN:
           ---                                      ---
              STO-SS =          46.5333                STO-SS =           0.0000     STORAGE         
              STO-SY =       29645.8724                STO-SY =           0.0000     STORAGE         
                 RCH =      157481.9904                   RCH =         190.6849     RCHA            
                 CHD =         227.2620                   CHD =           0.0000     CHD             

            TOTAL IN =      187401.6583              TOTAL IN =         190.6849

          OUT:                                     OUT:
          ----                                     ----
              STO-SS =          36.3871                STO-SS =       5.3385E-02     STORAGE         
              STO-SY =       23526.9186                STO-SY =          33.6224     STORAGE         
                 RCH =           0.0000                   RCH =           0.0000     RCHA            
                 CHD =      163839.1233                   CHD =         157.0200     CHD             

           TOTAL OUT =      187402.4291             TOTAL OUT =         190.6958

            IN - OUT =          -0.7708              IN - OUT =      -1.0901E-02

 PERCENT DISCREPANCY =          -0.00     PERCENT DISCREPANCY =          -0.01




         TIME SUMMARY AT END OF TIME STEP    8 IN STRESS PERIOD   34
                    SECONDS     MINUTES      HOURS       DAYS        YEARS
                    -----------------------------------------------------------
   TIME STEP LENGTH 2.59200E+05  4320.0      72.000      3.0000     8.21355E-03
 STRESS PERIOD TIME 2.07360E+06  34560.      576.00      24.000     6.57084E-02
         TOTAL TIME 8.51040E+07 1.41840E+06  23640.      985.00      2.6968    
 UBDSV1 SAVING           STO-SS ON UNIT   1016 AT TIME STEP      9, STRESS PERIOD     34
 UBDSV1 SAVING           STO-SY ON UNIT   1016 AT TIME STEP      9, STRESS PERIOD     34
 UBDSV1 SAVING     FLOW-JA-FACE ON UNIT   1016 AT TIME STEP      9, STRESS PERIOD     34
 UBDSV06 SAVING              RCH IN MODEL TEST_TRANS       PACKAGE TEST_TRANS      CONNECTED TO MODEL TEST_TRANS       PACKAGE RCHA             ON UNIT   1016 AT TIME STEP      9, STRESS PERIOD     34
 UBDSV06 SAVING              CHD IN MODEL TEST_TRANS       PACKAGE TEST_TRANS      CONNECTED TO MODEL TEST_TRANS       PACKAGE CHD              ON UNIT   1016 AT TIME STEP      9, STRESS PERIOD     34

 HEAD WILL BE SAVED ON UNIT 1017 AT END OF TIME STEP    9, STRESS PERIOD   34


  VOLUME BUDGET FOR ENTIRE MODEL AT END OF TIME STEP    9, STRESS PERIOD  34
  ---------------------------------------------------------------------------------------------------

     CUMULATIVE VOLUME      L**3       RATES FOR THIS TIME STEP      L**3/T          PACKAGE NAME    
     ------------------                 ------------------------                     ----------------

           IN:                                      IN:
           ---                                      ---
              STO-SS =          46.5333                STO-SS =           0.0000     STORAGE         
              STO-SY =       29645.8724                STO-SY =           0.0000     STORAGE         
                 RCH =      158054.0450                   RCH =         190.6849     RCHA            
                 CHD =         227.2620                   CHD =           0.0000     CHD             

            TOTAL IN =      187973.7128              TOTAL IN =         190.6849

          OUT:                                     OUT:
          ----                                     ----
              STO-SS =          36.5464                STO-SS =       5.3100E-02     STORAGE         
              STO-SY =       23627.3269                STO-SY =          33.4694     STORAGE         
                 RCH =           0.0000                   RCH =           0.0000     RCHA            
                 CHD =      164310.6502                   CHD =         157.1756     CHD             

           TOTAL OUT =      187974.5235             TOTAL OUT =         190.6981

            IN - OUT =          -0.8107              IN - OUT =      -1.3280E-02

 PERCENT DISCREPANCY =          -0.00     PERCENT DISCREPANCY =          -0.01




         TIME SUMMARY AT END OF TIME STEP    9 IN STRESS PERIOD   34
                    SECONDS     MINUTES      HOURS       DAYS        YEARS
                    -----------------------------------------------------------
   TIME STEP LENGTH 2.59200E+05  4320.0      72.000      3.0000     8.21355E-03
 STRESS PERIOD TIME 2.33280E+06  38880.      648.00      27.000     7.39220E-02
         TOTAL TIME 8.53632E+07 1.42272E+06  23712.      988.00      2.7050    
 UBDSV1 SAVING           STO-SS ON UNIT   1016 AT TIME STEP     10, STRESS PERIOD     34
 UBDSV1 SAVING           STO-SY ON UNIT   1016 AT TIME STEP     10, STRESS PERIOD     34
 UBDSV1 SAVING     FLOW-JA-FACE ON UNIT   1016 AT TIME STEP     10, STRESS PERIOD     34
 UBDSV06 SAVING              RCH IN MODEL TEST_TRANS       PACKAGE TEST_TRANS      CONNECTED TO MODEL TEST_TRANS       PACKAGE RCHA             ON UNIT   1016 AT TIME STEP     10, STRESS PERIOD     34
 UBDSV06 SAVING              CHD IN MODEL TEST_TRANS       PACKAGE TEST_TRANS      CONNECTED TO MODEL TEST_TRANS       PACKAGE CHD              ON UNIT   1016 AT TIME STEP     10, STRESS PERIOD     34

 HEAD WILL BE SAVED ON UNIT 1017 AT END OF TIME STEP   10, STRESS PERIOD   34


  VOLUME BUDGET FOR ENTIRE MODEL AT END OF TIME STEP   10, STRESS PERIOD  34
  ---------------------------------------------------------------------------------------------------

     CUMULATIVE VOLUME      L**3       RATES FOR THIS TIME STEP      L**3/T          PACKAGE NAME    
     ------------------                 ------------------------                     ----------------

           IN:                                      IN:
           ---                                      ---
              STO-SS =          46.5333                STO-SS =           0.0000     STORAGE         
              STO-SY =       29645.8724                STO-SY =           0.0000     STORAGE         
                 RCH =      158626.0996                   RCH =         190.6849     RCHA            
                 CHD =         227.2620                   CHD =           0.0000     CHD             

            TOTAL IN =      188545.7674              TOTAL IN =         190.6849

          OUT:                                     OUT:
          ----                                     ----
              STO-SS =          36.7046                STO-SS =       5.2713E-02     STORAGE         
              STO-SY =       23727.0557                STO-SY =          33.2429     STORAGE         
                 RCH =           0.0000                   RCH =           0.0000     RCHA            
                 CHD =      164782.8676                   CHD =         157.4058     CHD             

           TOTAL OUT =      188546.6279             TOTAL OUT =         190.7015

            IN - OUT =          -0.8605              IN - OUT =      -1.6602E-02

 PERCENT DISCREPANCY =          -0.00     PERCENT DISCREPANCY =          -0.01




         TIME SUMMARY AT END OF TIME STEP   10 IN STRESS PERIOD   34
                    SECONDS     MINUTES      HOURS       DAYS        YEARS
                    -----------------------------------------------------------
   TIME STEP LENGTH 2.59200E+05  4320.0      72.000      3.0000     8.21355E-03
 STRESS PERIOD TIME 2.59200E+06  43200.      720.00      30.000     8.21355E-02
         TOTAL TIME 8.56224E+07 1.42704E+06  23784.      991.00      2.7132    

 OUTPUT CONTROL FOR STRESS PERIOD 35 IS REPEATED USING SETTINGS FROM A PREVIOUS STRESS PERIOD.


 STRESS PERIOD 35 IS TRANSIENT


                 RECHARGE =  0.2465750E-02
 UBDSV1 SAVING           STO-SS ON UNIT   1016 AT TIME STEP      1, STRESS PERIOD     35
 UBDSV1 SAVING           STO-SY ON UNIT   1016 AT TIME STEP      1, STRESS PERIOD     35
 UBDSV1 SAVING     FLOW-JA-FACE ON UNIT   1016 AT TIME STEP      1, STRESS PERIOD     35
 UBDSV06 SAVING              RCH IN MODEL TEST_TRANS       PACKAGE TEST_TRANS      CONNECTED TO MODEL TEST_TRANS       PACKAGE RCHA             ON UNIT   1016 AT TIME STEP      1, STRESS PERIOD     35
 UBDSV06 SAVING              CHD IN MODEL TEST_TRANS       PACKAGE TEST_TRANS      CONNECTED TO MODEL TEST_TRANS       PACKAGE CHD              ON UNIT   1016 AT TIME STEP      1, STRESS PERIOD     35

 HEAD WILL BE SAVED ON UNIT 1017 AT END OF TIME STEP    1, STRESS PERIOD   35


  VOLUME BUDGET FOR ENTIRE MODEL AT END OF TIME STEP    1, STRESS PERIOD  35
  ---------------------------------------------------------------------------------------------------

     CUMULATIVE VOLUME      L**3       RATES FOR THIS TIME STEP      L**3/T          PACKAGE NAME    
     ------------------                 ------------------------                     ----------------

           IN:                                      IN:
           ---                                      ---
              STO-SS =          46.6570                STO-SS =       4.1215E-02     STORAGE         
              STO-SY =       29733.5135                STO-SY =          29.2137     STORAGE         
                 RCH =      159269.6604                   RCH =         214.5203     RCHA            
                 CHD =         227.2620                   CHD =           0.0000     CHD             

            TOTAL IN =      189277.0929              TOTAL IN =         243.7752

          OUT:                                     OUT:
          ----                                     ----
              STO-SS =          36.9367                STO-SS =       7.7364E-02     STORAGE         
              STO-SY =       23873.0303                STO-SY =          48.6582     STORAGE         
                 RCH =           0.0000                   RCH =           0.0000     RCHA            
                 CHD =      165368.0018                   CHD =         195.0447     CHD             

           TOTAL OUT =      189277.9688             TOTAL OUT =         243.7803

            IN - OUT =          -0.8759              IN - OUT =      -5.1348E-03

 PERCENT DISCREPANCY =          -0.00     PERCENT DISCREPANCY =          -0.00




         TIME SUMMARY AT END OF TIME STEP    1 IN STRESS PERIOD   35
                    SECONDS     MINUTES      HOURS       DAYS        YEARS
                    -----------------------------------------------------------
   TIME STEP LENGTH 2.59200E+05  4320.0      72.000      3.0000     8.21355E-03
 STRESS PERIOD TIME 2.59200E+05  4320.0      72.000      3.0000     8.21355E-03
         TOTAL TIME 8.58816E+07 1.43136E+06  23856.      994.00      2.7214    
 UBDSV1 SAVING           STO-SS ON UNIT   1016 AT TIME STEP      2, STRESS PERIOD     35
 UBDSV1 SAVING           STO-SY ON UNIT   1016 AT TIME STEP      2, STRESS PERIOD     35
 UBDSV1 SAVING     FLOW-JA-FACE ON UNIT   1016 AT TIME STEP      2, STRESS PERIOD     35
 UBDSV06 SAVING              RCH IN MODEL TEST_TRANS       PACKAGE TEST_TRANS      CONNECTED TO MODEL TEST_TRANS       PACKAGE RCHA             ON UNIT   1016 AT TIME STEP      2, STRESS PERIOD     35
 UBDSV06 SAVING              CHD IN MODEL TEST_TRANS       PACKAGE TEST_TRANS      CONNECTED TO MODEL TEST_TRANS       PACKAGE CHD              ON UNIT   1016 AT TIME STEP      2, STRESS PERIOD     35

 HEAD WILL BE SAVED ON UNIT 1017 AT END OF TIME STEP    2, STRESS PERIOD   35


  VOLUME BUDGET FOR ENTIRE MODEL AT END OF TIME STEP    2, STRESS PERIOD  35
  ---------------------------------------------------------------------------------------------------

     CUMULATIVE VOLUME      L**3       RATES FOR THIS TIME STEP      L**3/T          PACKAGE NAME    
     ------------------                 ------------------------                     ----------------

           IN:                                      IN:
           ---                                      ---
              STO-SS =          46.7169                STO-SS =       1.9988E-02     STORAGE         
              STO-SY =       29775.6738                STO-SY =          14.0534     STORAGE         
                 RCH =      159913.2211                   RCH =         214.5203     RCHA            
                 CHD =         227.2620                   CHD =           0.0000     CHD             

            TOTAL IN =      189962.8738              TOTAL IN =         228.5936

          OUT:                                     OUT:
          ----                                     ----
              STO-SS =          37.1562                STO-SS =       7.3185E-02     STORAGE         
              STO-SY =       24010.7762                STO-SY =          45.9153     STORAGE         
                 RCH =           0.0000                   RCH =           0.0000     RCHA            
                 CHD =      165915.8320                   CHD =         182.6100     CHD             

           TOTAL OUT =      189963.7644             TOTAL OUT =         228.5985

            IN - OUT =          -0.8905              IN - OUT =      -4.8716E-03

 PERCENT DISCREPANCY =          -0.00     PERCENT DISCREPANCY =          -0.00




         TIME SUMMARY AT END OF TIME STEP    2 IN STRESS PERIOD   35
                    SECONDS     MINUTES      HOURS       DAYS        YEARS
                    -----------------------------------------------------------
   TIME STEP LENGTH 2.59200E+05  4320.0      72.000      3.0000     8.21355E-03
 STRESS PERIOD TIME 5.18400E+05  8640.0      144.00      6.0000     1.64271E-02
         TOTAL TIME 8.61408E+07 1.43568E+06  23928.      997.00      2.7296    
 UBDSV1 SAVING           STO-SS ON UNIT   1016 AT TIME STEP      3, STRESS PERIOD     35
 UBDSV1 SAVING           STO-SY ON UNIT   1016 AT TIME STEP      3, STRESS PERIOD     35
 UBDSV1 SAVING     FLOW-JA-FACE ON UNIT   1016 AT TIME STEP      3, STRESS PERIOD     35
 UBDSV06 SAVING              RCH IN MODEL TEST_TRANS       PACKAGE TEST_TRANS      CONNECTED TO MODEL TEST_TRANS       PACKAGE RCHA             ON UNIT   1016 AT TIME STEP      3, STRESS PERIOD     35
 UBDSV06 SAVING              CHD IN MODEL TEST_TRANS       PACKAGE TEST_TRANS      CONNECTED TO MODEL TEST_TRANS       PACKAGE CHD              ON UNIT   1016 AT TIME STEP      3, STRESS PERIOD     35

 HEAD WILL BE SAVED ON UNIT 1017 AT END OF TIME STEP    3, STRESS PERIOD   35


  VOLUME BUDGET FOR ENTIRE MODEL AT END OF TIME STEP    3, STRESS PERIOD  35
  ---------------------------------------------------------------------------------------------------

     CUMULATIVE VOLUME      L**3       RATES FOR THIS TIME STEP      L**3/T          PACKAGE NAME    
     ------------------                 ------------------------                     ----------------

           IN:                                      IN:
           ---                                      ---
              STO-SS =          46.7492                STO-SS =       1.0767E-02     STORAGE         
              STO-SY =       29798.2708                STO-SY =           7.5323     STORAGE         
                 RCH =      160556.7819                   RCH =         214.5203     RCHA            
                 CHD =         227.2620                   CHD =           0.0000     CHD             

            TOTAL IN =      190629.0639              TOTAL IN =         222.0634

          OUT:                                     OUT:
          ----                                     ----
              STO-SS =          37.3666                STO-SS =       7.0139E-02     STORAGE         
              STO-SY =       24142.5781                STO-SY =          43.9340     STORAGE         
                 RCH =           0.0000                   RCH =           0.0000     RCHA            
                 CHD =      166450.0138                   CHD =         178.0606     CHD             

           TOTAL OUT =      190629.9585             TOTAL OUT =         222.0647

            IN - OUT =          -0.8946              IN - OUT =      -1.3545E-03

 PERCENT DISCREPANCY =          -0.00     PERCENT DISCREPANCY =          -0.00




         TIME SUMMARY AT END OF TIME STEP    3 IN STRESS PERIOD   35
                    SECONDS     MINUTES      HOURS       DAYS        YEARS
                    -----------------------------------------------------------
   TIME STEP LENGTH 2.59200E+05  4320.0      72.000      3.0000     8.21355E-03
 STRESS PERIOD TIME 7.77600E+05  12960.      216.00      9.0000     2.46407E-02
         TOTAL TIME 8.64000E+07 1.44000E+06  24000.      1000.0      2.7379    
 UBDSV1 SAVING           STO-SS ON UNIT   1016 AT TIME STEP      4, STRESS PERIOD     35
 UBDSV1 SAVING           STO-SY ON UNIT   1016 AT TIME STEP      4, STRESS PERIOD     35
 UBDSV1 SAVING     FLOW-JA-FACE ON UNIT   1016 AT TIME STEP      4, STRESS PERIOD     35
 UBDSV06 SAVING              RCH IN MODEL TEST_TRANS       PACKAGE TEST_TRANS      CONNECTED TO MODEL TEST_TRANS       PACKAGE RCHA             ON UNIT   1016 AT TIME STEP      4, STRESS PERIOD     35
 UBDSV06 SAVING              CHD IN MODEL TEST_TRANS       PACKAGE TEST_TRANS      CONNECTED TO MODEL TEST_TRANS       PACKAGE CHD              ON UNIT   1016 AT TIME STEP      4, STRESS PERIOD     35

 HEAD WILL BE SAVED ON UNIT 1017 AT END OF TIME STEP    4, STRESS PERIOD   35


  VOLUME BUDGET FOR ENTIRE MODEL AT END OF TIME STEP    4, STRESS PERIOD  35
  ---------------------------------------------------------------------------------------------------

     CUMULATIVE VOLUME      L**3       RATES FOR THIS TIME STEP      L**3/T          PACKAGE NAME    
     ------------------                 ------------------------                     ----------------

           IN:                                      IN:
           ---                                      ---
              STO-SS =          46.7665                STO-SS =       5.7409E-03     STORAGE         
              STO-SY =       29810.3007                STO-SY =           4.0100     STORAGE         
                 RCH =      161200.3426                   RCH =         214.5203     RCHA            
                 CHD =         227.2620                   CHD =           0.0000     CHD             

            TOTAL IN =      191284.6718              TOTAL IN =         218.5360

          OUT:                                     OUT:
          ----                                     ----
              STO-SS =          37.5702                STO-SS =       6.7851E-02     STORAGE         
              STO-SY =       24269.9482                STO-SY =          42.4567     STORAGE         
                 RCH =           0.0000                   RCH =           0.0000     RCHA            
                 CHD =      166978.0501                   CHD =         176.0121     CHD             

           TOTAL OUT =      191285.5684             TOTAL OUT =         218.5367

            IN - OUT =          -0.8967              IN - OUT =      -6.9567E-04

 PERCENT DISCREPANCY =          -0.00     PERCENT DISCREPANCY =          -0.00




         TIME SUMMARY AT END OF TIME STEP    4 IN STRESS PERIOD   35
                    SECONDS     MINUTES      HOURS       DAYS        YEARS
                    -----------------------------------------------------------
   TIME STEP LENGTH 2.59200E+05  4320.0      72.000      3.0000     8.21355E-03
 STRESS PERIOD TIME 1.03680E+06  17280.      288.00      12.000     3.28542E-02
         TOTAL TIME 8.66592E+07 1.44432E+06  24072.      1003.0      2.7461    
 UBDSV1 SAVING           STO-SS ON UNIT   1016 AT TIME STEP      5, STRESS PERIOD     35
 UBDSV1 SAVING           STO-SY ON UNIT   1016 AT TIME STEP      5, STRESS PERIOD     35
 UBDSV1 SAVING     FLOW-JA-FACE ON UNIT   1016 AT TIME STEP      5, STRESS PERIOD     35
 UBDSV06 SAVING              RCH IN MODEL TEST_TRANS       PACKAGE TEST_TRANS      CONNECTED TO MODEL TEST_TRANS       PACKAGE RCHA             ON UNIT   1016 AT TIME STEP      5, STRESS PERIOD     35
 UBDSV06 SAVING              CHD IN MODEL TEST_TRANS       PACKAGE TEST_TRANS      CONNECTED TO MODEL TEST_TRANS       PACKAGE CHD              ON UNIT   1016 AT TIME STEP      5, STRESS PERIOD     35

 HEAD WILL BE SAVED ON UNIT 1017 AT END OF TIME STEP    5, STRESS PERIOD   35


  VOLUME BUDGET FOR ENTIRE MODEL AT END OF TIME STEP    5, STRESS PERIOD  35
  ---------------------------------------------------------------------------------------------------

     CUMULATIVE VOLUME      L**3       RATES FOR THIS TIME STEP      L**3/T          PACKAGE NAME    
     ------------------                 ------------------------                     ----------------

           IN:                                      IN:
           ---                                      ---
              STO-SS =          46.7747                STO-SS =       2.7350E-03     STORAGE         
              STO-SY =       29816.0438                STO-SY =           1.9144     STORAGE         
                 RCH =      161843.9034                   RCH =         214.5203     RCHA            
                 CHD =         227.2620                   CHD =           0.0000     CHD             

            TOTAL IN =      191933.9838              TOTAL IN =         216.4374

          OUT:                                     OUT:
          ----                                     ----
              STO-SS =          37.7686                STO-SS =       6.6138E-02     STORAGE         
              STO-SY =       24394.0250                STO-SY =          41.3589     STORAGE         
                 RCH =           0.0000                   RCH =           0.0000     RCHA            
                 CHD =      167503.0902                   CHD =         175.0134     CHD             

           TOTAL OUT =      191934.8838             TOTAL OUT =         216.4385

            IN - OUT =          -0.9000              IN - OUT =      -1.1047E-03

 PERCENT DISCREPANCY =          -0.00     PERCENT DISCREPANCY =          -0.00




         TIME SUMMARY AT END OF TIME STEP    5 IN STRESS PERIOD   35
                    SECONDS     MINUTES      HOURS       DAYS        YEARS
                    -----------------------------------------------------------
   TIME STEP LENGTH 2.59200E+05  4320.0      72.000      3.0000     8.21355E-03
 STRESS PERIOD TIME 1.29600E+06  21600.      360.00      15.000     4.10678E-02
         TOTAL TIME 8.69184E+07 1.44864E+06  24144.      1006.0      2.7543    
 UBDSV1 SAVING           STO-SS ON UNIT   1016 AT TIME STEP      6, STRESS PERIOD     35
 UBDSV1 SAVING           STO-SY ON UNIT   1016 AT TIME STEP      6, STRESS PERIOD     35
 UBDSV1 SAVING     FLOW-JA-FACE ON UNIT   1016 AT TIME STEP      6, STRESS PERIOD     35
 UBDSV06 SAVING              RCH IN MODEL TEST_TRANS       PACKAGE TEST_TRANS      CONNECTED TO MODEL TEST_TRANS       PACKAGE RCHA             ON UNIT   1016 AT TIME STEP      6, STRESS PERIOD     35
 UBDSV06 SAVING              CHD IN MODEL TEST_TRANS       PACKAGE TEST_TRANS      CONNECTED TO MODEL TEST_TRANS       PACKAGE CHD              ON UNIT   1016 AT TIME STEP      6, STRESS PERIOD     35

 HEAD WILL BE SAVED ON UNIT 1017 AT END OF TIME STEP    6, STRESS PERIOD   35


  VOLUME BUDGET FOR ENTIRE MODEL AT END OF TIME STEP    6, STRESS PERIOD  35
  ---------------------------------------------------------------------------------------------------

     CUMULATIVE VOLUME      L**3       RATES FOR THIS TIME STEP      L**3/T          PACKAGE NAME    
     ------------------                 ------------------------                     ----------------

           IN:                                      IN:
           ---                                      ---
              STO-SS =          46.7777                STO-SS =       1.0165E-03     STORAGE         
              STO-SY =       29818.1901                STO-SY =           0.7155     STORAGE         
                 RCH =      162487.4641                   RCH =         214.5203     RCHA            
                 CHD =         227.2620                   CHD =           0.0000     CHD             

            TOTAL IN =      192579.6940              TOTAL IN =         215.2367

          OUT:                                     OUT:
          ----                                     ----
              STO-SS =          37.9635                STO-SS =       6.4972E-02     STORAGE         
              STO-SY =       24515.8951                STO-SY =          40.6234     STORAGE         
                 RCH =           0.0000                   RCH =           0.0000     RCHA            
                 CHD =      168026.7396                   CHD =         174.5498     CHD             

           TOTAL OUT =      192580.5982             TOTAL OUT =         215.2381

            IN - OUT =          -0.9042              IN - OUT =      -1.4181E-03

 PERCENT DISCREPANCY =          -0.00     PERCENT DISCREPANCY =          -0.00




         TIME SUMMARY AT END OF TIME STEP    6 IN STRESS PERIOD   35
                    SECONDS     MINUTES      HOURS       DAYS        YEARS
                    -----------------------------------------------------------
   TIME STEP LENGTH 2.59200E+05  4320.0      72.000      3.0000     8.21355E-03
 STRESS PERIOD TIME 1.55520E+06  25920.      432.00      18.000     4.92813E-02
         TOTAL TIME 8.71776E+07 1.45296E+06  24216.      1009.0      2.7625    
 UBDSV1 SAVING           STO-SS ON UNIT   1016 AT TIME STEP      7, STRESS PERIOD     35
 UBDSV1 SAVING           STO-SY ON UNIT   1016 AT TIME STEP      7, STRESS PERIOD     35
 UBDSV1 SAVING     FLOW-JA-FACE ON UNIT   1016 AT TIME STEP      7, STRESS PERIOD     35
 UBDSV06 SAVING              RCH IN MODEL TEST_TRANS       PACKAGE TEST_TRANS      CONNECTED TO MODEL TEST_TRANS       PACKAGE RCHA             ON UNIT   1016 AT TIME STEP      7, STRESS PERIOD     35
 UBDSV06 SAVING              CHD IN MODEL TEST_TRANS       PACKAGE TEST_TRANS      CONNECTED TO MODEL TEST_TRANS       PACKAGE CHD              ON UNIT   1016 AT TIME STEP      7, STRESS PERIOD     35

 HEAD WILL BE SAVED ON UNIT 1017 AT END OF TIME STEP    7, STRESS PERIOD   35


  VOLUME BUDGET FOR ENTIRE MODEL AT END OF TIME STEP    7, STRESS PERIOD  35
  ---------------------------------------------------------------------------------------------------

     CUMULATIVE VOLUME      L**3       RATES FOR THIS TIME STEP      L**3/T          PACKAGE NAME    
     ------------------                 ------------------------                     ----------------

           IN:                                      IN:
           ---                                      ---
              STO-SS =          46.7783                STO-SS =       1.9606E-04     STORAGE         
              STO-SY =       29818.6083                STO-SY =           0.1394     STORAGE         
                 RCH =      163131.0249                   RCH =         214.5203     RCHA            
                 CHD =         227.2620                   CHD =           0.0000     CHD             

            TOTAL IN =      193223.6735              TOTAL IN =         214.6598

          OUT:                                     OUT:
          ----                                     ----
              STO-SS =          38.1564                STO-SS =       6.4291E-02     STORAGE         
              STO-SY =       24636.5294                STO-SY =          40.2114     STORAGE         
                 RCH =           0.0000                   RCH =           0.0000     RCHA            
                 CHD =      168549.9159                   CHD =         174.3921     CHD             

           TOTAL OUT =      193224.6017             TOTAL OUT =         214.6678

            IN - OUT =          -0.9282              IN - OUT =      -7.9806E-03

 PERCENT DISCREPANCY =          -0.00     PERCENT DISCREPANCY =          -0.00




         TIME SUMMARY AT END OF TIME STEP    7 IN STRESS PERIOD   35
                    SECONDS     MINUTES      HOURS       DAYS        YEARS
                    -----------------------------------------------------------
   TIME STEP LENGTH 2.59200E+05  4320.0      72.000      3.0000     8.21355E-03
 STRESS PERIOD TIME 1.81440E+06  30240.      504.00      21.000     5.74949E-02
         TOTAL TIME 8.74368E+07 1.45728E+06  24288.      1012.0      2.7707    
 UBDSV1 SAVING           STO-SS ON UNIT   1016 AT TIME STEP      8, STRESS PERIOD     35
 UBDSV1 SAVING           STO-SY ON UNIT   1016 AT TIME STEP      8, STRESS PERIOD     35
 UBDSV1 SAVING     FLOW-JA-FACE ON UNIT   1016 AT TIME STEP      8, STRESS PERIOD     35
 UBDSV06 SAVING              RCH IN MODEL TEST_TRANS       PACKAGE TEST_TRANS      CONNECTED TO MODEL TEST_TRANS       PACKAGE RCHA             ON UNIT   1016 AT TIME STEP      8, STRESS PERIOD     35
 UBDSV06 SAVING              CHD IN MODEL TEST_TRANS       PACKAGE TEST_TRANS      CONNECTED TO MODEL TEST_TRANS       PACKAGE CHD              ON UNIT   1016 AT TIME STEP      8, STRESS PERIOD     35

 HEAD WILL BE SAVED ON UNIT 1017 AT END OF TIME STEP    8, STRESS PERIOD   35


  VOLUME BUDGET FOR ENTIRE MODEL AT END OF TIME STEP    8, STRESS PERIOD  35
  ---------------------------------------------------------------------------------------------------

     CUMULATIVE VOLUME      L**3       RATES FOR THIS TIME STEP      L**3/T          PACKAGE NAME    
     ------------------                 ------------------------                     ----------------

           IN:                                      IN:
           ---                                      ---
              STO-SS =          46.7783                STO-SS =           0.0000     STORAGE         
              STO-SY =       29818.6083                STO-SY =           0.0000     STORAGE         
                 RCH =      163774.5856                   RCH =         214.5203     RCHA            
                 CHD =         227.2620                   CHD =           0.0000     CHD             

            TOTAL IN =      193867.2343              TOTAL IN =         214.5203

          OUT:                                     OUT:
          ----                                     ----
              STO-SS =          38.3482                STO-SS =       6.3947E-02     STORAGE         
              STO-SY =       24756.6254                STO-SY =          40.0320     STORAGE         
                 RCH =           0.0000                   RCH =           0.0000     RCHA            
                 CHD =      169073.2282                   CHD =         174.4374     CHD             

           TOTAL OUT =      193868.2018             TOTAL OUT =         214.5334

            IN - OUT =          -0.9675              IN - OUT =      -1.3119E-02

 PERCENT DISCREPANCY =          -0.00     PERCENT DISCREPANCY =          -0.01




         TIME SUMMARY AT END OF TIME STEP    8 IN STRESS PERIOD   35
                    SECONDS     MINUTES      HOURS       DAYS        YEARS
                    -----------------------------------------------------------
   TIME STEP LENGTH 2.59200E+05  4320.0      72.000      3.0000     8.21355E-03
 STRESS PERIOD TIME 2.07360E+06  34560.      576.00      24.000     6.57084E-02
         TOTAL TIME 8.76960E+07 1.46160E+06  24360.      1015.0      2.7789    
 UBDSV1 SAVING           STO-SS ON UNIT   1016 AT TIME STEP      9, STRESS PERIOD     35
 UBDSV1 SAVING           STO-SY ON UNIT   1016 AT TIME STEP      9, STRESS PERIOD     35
 UBDSV1 SAVING     FLOW-JA-FACE ON UNIT   1016 AT TIME STEP      9, STRESS PERIOD     35
 UBDSV06 SAVING              RCH IN MODEL TEST_TRANS       PACKAGE TEST_TRANS      CONNECTED TO MODEL TEST_TRANS       PACKAGE RCHA             ON UNIT   1016 AT TIME STEP      9, STRESS PERIOD     35
 UBDSV06 SAVING              CHD IN MODEL TEST_TRANS       PACKAGE TEST_TRANS      CONNECTED TO MODEL TEST_TRANS       PACKAGE CHD              ON UNIT   1016 AT TIME STEP      9, STRESS PERIOD     35

 HEAD WILL BE SAVED ON UNIT 1017 AT END OF TIME STEP    9, STRESS PERIOD   35


  VOLUME BUDGET FOR ENTIRE MODEL AT END OF TIME STEP    9, STRESS PERIOD  35
  ---------------------------------------------------------------------------------------------------

     CUMULATIVE VOLUME      L**3       RATES FOR THIS TIME STEP      L**3/T          PACKAGE NAME    
     ------------------                 ------------------------                     ----------------

           IN:                                      IN:
           ---                                      ---
              STO-SS =          46.7783                STO-SS =           0.0000     STORAGE         
              STO-SY =       29818.6083                STO-SY =           0.0000     STORAGE         
                 RCH =      164418.1464                   RCH =         214.5203     RCHA            
                 CHD =         227.2620                   CHD =           0.0000     CHD             

            TOTAL IN =      194510.7950              TOTAL IN =         214.5203

          OUT:                                     OUT:
          ----                                     ----
              STO-SS =          38.5391                STO-SS =       6.3615E-02     STORAGE         
              STO-SY =       24876.2014                STO-SY =          39.8587     STORAGE         
                 RCH =           0.0000                   RCH =           0.0000     RCHA            
                 CHD =      169597.0741                   CHD =         174.6153     CHD             

           TOTAL OUT =      194511.8146             TOTAL OUT =         214.5376

            IN - OUT =          -1.0196              IN - OUT =      -1.7354E-02

 PERCENT DISCREPANCY =          -0.00     PERCENT DISCREPANCY =          -0.01




         TIME SUMMARY AT END OF TIME STEP    9 IN STRESS PERIOD   35
                    SECONDS     MINUTES      HOURS       DAYS        YEARS
                    -----------------------------------------------------------
   TIME STEP LENGTH 2.59200E+05  4320.0      72.000      3.0000     8.21355E-03
 STRESS PERIOD TIME 2.33280E+06  38880.      648.00      27.000     7.39220E-02
         TOTAL TIME 8.79552E+07 1.46592E+06  24432.      1018.0      2.7871    
 UBDSV1 SAVING           STO-SS ON UNIT   1016 AT TIME STEP     10, STRESS PERIOD     35
 UBDSV1 SAVING           STO-SY ON UNIT   1016 AT TIME STEP     10, STRESS PERIOD     35
 UBDSV1 SAVING     FLOW-JA-FACE ON UNIT   1016 AT TIME STEP     10, STRESS PERIOD     35
 UBDSV06 SAVING              RCH IN MODEL TEST_TRANS       PACKAGE TEST_TRANS      CONNECTED TO MODEL TEST_TRANS       PACKAGE RCHA             ON UNIT   1016 AT TIME STEP     10, STRESS PERIOD     35
 UBDSV06 SAVING              CHD IN MODEL TEST_TRANS       PACKAGE TEST_TRANS      CONNECTED TO MODEL TEST_TRANS       PACKAGE CHD              ON UNIT   1016 AT TIME STEP     10, STRESS PERIOD     35

 HEAD WILL BE SAVED ON UNIT 1017 AT END OF TIME STEP   10, STRESS PERIOD   35


  VOLUME BUDGET FOR ENTIRE MODEL AT END OF TIME STEP   10, STRESS PERIOD  35
  ---------------------------------------------------------------------------------------------------

     CUMULATIVE VOLUME      L**3       RATES FOR THIS TIME STEP      L**3/T          PACKAGE NAME    
     ------------------                 ------------------------                     ----------------

           IN:                                      IN:
           ---                                      ---
              STO-SS =          46.7783                STO-SS =           0.0000     STORAGE         
              STO-SY =       29818.6083                STO-SY =           0.0000     STORAGE         
                 RCH =      165061.7071                   RCH =         214.5203     RCHA            
                 CHD =         227.2620                   CHD =           0.0000     CHD             

            TOTAL IN =      195154.3558              TOTAL IN =         214.5203

          OUT:                                     OUT:
          ----                                     ----
              STO-SS =          38.7285                STO-SS =       6.3154E-02     STORAGE         
              STO-SY =       24994.9820                STO-SY =          39.5935     STORAGE         
                 RCH =           0.0000                   RCH =           0.0000     RCHA            
                 CHD =      170121.7275                   CHD =         174.8845     CHD             

           TOTAL OUT =      195155.4381             TOTAL OUT =         214.5412

            IN - OUT =          -1.0823              IN - OUT =      -2.0900E-02

 PERCENT DISCREPANCY =          -0.00     PERCENT DISCREPANCY =          -0.01




         TIME SUMMARY AT END OF TIME STEP   10 IN STRESS PERIOD   35
                    SECONDS     MINUTES      HOURS       DAYS        YEARS
                    -----------------------------------------------------------
   TIME STEP LENGTH 2.59200E+05  4320.0      72.000      3.0000     8.21355E-03
 STRESS PERIOD TIME 2.59200E+06  43200.      720.00      30.000     8.21355E-02
         TOTAL TIME 8.82144E+07 1.47024E+06  24504.      1021.0      2.7953    

 OUTPUT CONTROL FOR STRESS PERIOD 36 IS REPEATED USING SETTINGS FROM A PREVIOUS STRESS PERIOD.


 STRESS PERIOD 36 IS TRANSIENT


                 RECHARGE =  0.2739730E-02
 UBDSV1 SAVING           STO-SS ON UNIT   1016 AT TIME STEP      1, STRESS PERIOD     36
 UBDSV1 SAVING           STO-SY ON UNIT   1016 AT TIME STEP      1, STRESS PERIOD     36
 UBDSV1 SAVING     FLOW-JA-FACE ON UNIT   1016 AT TIME STEP      1, STRESS PERIOD     36
 UBDSV06 SAVING              RCH IN MODEL TEST_TRANS       PACKAGE TEST_TRANS      CONNECTED TO MODEL TEST_TRANS       PACKAGE RCHA             ON UNIT   1016 AT TIME STEP      1, STRESS PERIOD     36
 UBDSV06 SAVING              CHD IN MODEL TEST_TRANS       PACKAGE TEST_TRANS      CONNECTED TO MODEL TEST_TRANS       PACKAGE CHD              ON UNIT   1016 AT TIME STEP      1, STRESS PERIOD     36

 HEAD WILL BE SAVED ON UNIT 1017 AT END OF TIME STEP    1, STRESS PERIOD   36


  VOLUME BUDGET FOR ENTIRE MODEL AT END OF TIME STEP    1, STRESS PERIOD  36
  ---------------------------------------------------------------------------------------------------

     CUMULATIVE VOLUME      L**3       RATES FOR THIS TIME STEP      L**3/T          PACKAGE NAME    
     ------------------                 ------------------------                     ----------------

           IN:                                      IN:
           ---                                      ---
              STO-SS =          46.8926                STO-SS =       3.8099E-02     STORAGE         
              STO-SY =       29900.1924                STO-SY =          27.1947     STORAGE         
                 RCH =      165776.7766                   RCH =         238.3565     RCHA            
                 CHD =         227.2620                   CHD =           0.0000     CHD             

            TOTAL IN =      195951.1237              TOTAL IN =         265.5893

          OUT:                                     OUT:
          ----                                     ----
              STO-SS =          38.9921                STO-SS =       8.7849E-02     STORAGE         
              STO-SY =       25159.7511                STO-SY =          54.9230     STORAGE         
                 RCH =           0.0000                   RCH =           0.0000     RCHA            
                 CHD =      170753.4693                   CHD =         210.5806     CHD             

           TOTAL OUT =      195952.2125             TOTAL OUT =         265.5915

            IN - OUT =          -1.0888              IN - OUT =      -2.1689E-03

 PERCENT DISCREPANCY =          -0.00     PERCENT DISCREPANCY =          -0.00




         TIME SUMMARY AT END OF TIME STEP    1 IN STRESS PERIOD   36
                    SECONDS     MINUTES      HOURS       DAYS        YEARS
                    -----------------------------------------------------------
   TIME STEP LENGTH 2.59200E+05  4320.0      72.000      3.0000     8.21355E-03
 STRESS PERIOD TIME 2.59200E+05  4320.0      72.000      3.0000     8.21355E-03
         TOTAL TIME 8.84736E+07 1.47456E+06  24576.      1024.0      2.8036    
 UBDSV1 SAVING           STO-SS ON UNIT   1016 AT TIME STEP      2, STRESS PERIOD     36
 UBDSV1 SAVING           STO-SY ON UNIT   1016 AT TIME STEP      2, STRESS PERIOD     36
 UBDSV1 SAVING     FLOW-JA-FACE ON UNIT   1016 AT TIME STEP      2, STRESS PERIOD     36
 UBDSV06 SAVING              RCH IN MODEL TEST_TRANS       PACKAGE TEST_TRANS      CONNECTED TO MODEL TEST_TRANS       PACKAGE RCHA             ON UNIT   1016 AT TIME STEP      2, STRESS PERIOD     36
 UBDSV06 SAVING              CHD IN MODEL TEST_TRANS       PACKAGE TEST_TRANS      CONNECTED TO MODEL TEST_TRANS       PACKAGE CHD              ON UNIT   1016 AT TIME STEP      2, STRESS PERIOD     36

 HEAD WILL BE SAVED ON UNIT 1017 AT END OF TIME STEP    2, STRESS PERIOD   36


  VOLUME BUDGET FOR ENTIRE MODEL AT END OF TIME STEP    2, STRESS PERIOD  36
  ---------------------------------------------------------------------------------------------------

     CUMULATIVE VOLUME      L**3       RATES FOR THIS TIME STEP      L**3/T          PACKAGE NAME    
     ------------------                 ------------------------                     ----------------

           IN:                                      IN:
           ---                                      ---
              STO-SS =          46.9466                STO-SS =       1.7992E-02     STORAGE         
              STO-SY =       29938.4006                STO-SY =          12.7361     STORAGE         
                 RCH =      166491.8462                   RCH =         238.3565     RCHA            
                 CHD =         227.2620                   CHD =           0.0000     CHD             

            TOTAL IN =      196704.4553              TOTAL IN =         251.1106

          OUT:                                     OUT:
          ----                                     ----
              STO-SS =          39.2424                STO-SS =       8.3444E-02     STORAGE         
              STO-SY =       25315.8571                STO-SY =          52.0353     STORAGE         
                 RCH =           0.0000                   RCH =           0.0000     RCHA            
                 CHD =      171350.4635                   CHD =         198.9981     CHD             

           TOTAL OUT =      196705.5630             TOTAL OUT =         251.1169

            IN - OUT =          -1.1077              IN - OUT =      -6.2946E-03

 PERCENT DISCREPANCY =          -0.00     PERCENT DISCREPANCY =          -0.00




         TIME SUMMARY AT END OF TIME STEP    2 IN STRESS PERIOD   36
                    SECONDS     MINUTES      HOURS       DAYS        YEARS
                    -----------------------------------------------------------
   TIME STEP LENGTH 2.59200E+05  4320.0      72.000      3.0000     8.21355E-03
 STRESS PERIOD TIME 5.18400E+05  8640.0      144.00      6.0000     1.64271E-02
         TOTAL TIME 8.87328E+07 1.47888E+06  24648.      1027.0      2.8118    
 UBDSV1 SAVING           STO-SS ON UNIT   1016 AT TIME STEP      3, STRESS PERIOD     36
 UBDSV1 SAVING           STO-SY ON UNIT   1016 AT TIME STEP      3, STRESS PERIOD     36
 UBDSV1 SAVING     FLOW-JA-FACE ON UNIT   1016 AT TIME STEP      3, STRESS PERIOD     36
 UBDSV06 SAVING              RCH IN MODEL TEST_TRANS       PACKAGE TEST_TRANS      CONNECTED TO MODEL TEST_TRANS       PACKAGE RCHA             ON UNIT   1016 AT TIME STEP      3, STRESS PERIOD     36
 UBDSV06 SAVING              CHD IN MODEL TEST_TRANS       PACKAGE TEST_TRANS      CONNECTED TO MODEL TEST_TRANS       PACKAGE CHD              ON UNIT   1016 AT TIME STEP      3, STRESS PERIOD     36

 HEAD WILL BE SAVED ON UNIT 1017 AT END OF TIME STEP    3, STRESS PERIOD   36


  VOLUME BUDGET FOR ENTIRE MODEL AT END OF TIME STEP    3, STRESS PERIOD  36
  ---------------------------------------------------------------------------------------------------

     CUMULATIVE VOLUME      L**3       RATES FOR THIS TIME STEP      L**3/T          PACKAGE NAME    
     ------------------                 ------------------------                     ----------------

           IN:                                      IN:
           ---                                      ---
              STO-SS =          46.9744                STO-SS =       9.2621E-03     STORAGE         
              STO-SY =       29957.9736                STO-SY =           6.5243     STORAGE         
                 RCH =      167206.9157                   RCH =         238.3565     RCHA            
                 CHD =         227.2620                   CHD =           0.0000     CHD             

            TOTAL IN =      197439.1257              TOTAL IN =         244.8901

          OUT:                                     OUT:
          ----                                     ----
              STO-SS =          39.4835                STO-SS =       8.0351E-02     STORAGE         
              STO-SY =       25465.9476                STO-SY =          50.0302     STORAGE         
                 RCH =           0.0000                   RCH =           0.0000     RCHA            
                 CHD =      171934.8083                   CHD =         194.7816     CHD             

           TOTAL OUT =      197440.2394             TOTAL OUT =         244.8921

            IN - OUT =          -1.1137              IN - OUT =      -2.0047E-03

 PERCENT DISCREPANCY =          -0.00     PERCENT DISCREPANCY =          -0.00




         TIME SUMMARY AT END OF TIME STEP    3 IN STRESS PERIOD   36
                    SECONDS     MINUTES      HOURS       DAYS        YEARS
                    -----------------------------------------------------------
   TIME STEP LENGTH 2.59200E+05  4320.0      72.000      3.0000     8.21355E-03
 STRESS PERIOD TIME 7.77600E+05  12960.      216.00      9.0000     2.46407E-02
         TOTAL TIME 8.89920E+07 1.48320E+06  24720.      1030.0      2.8200    
 UBDSV1 SAVING           STO-SS ON UNIT   1016 AT TIME STEP      4, STRESS PERIOD     36
 UBDSV1 SAVING           STO-SY ON UNIT   1016 AT TIME STEP      4, STRESS PERIOD     36
 UBDSV1 SAVING     FLOW-JA-FACE ON UNIT   1016 AT TIME STEP      4, STRESS PERIOD     36
 UBDSV06 SAVING              RCH IN MODEL TEST_TRANS       PACKAGE TEST_TRANS      CONNECTED TO MODEL TEST_TRANS       PACKAGE RCHA             ON UNIT   1016 AT TIME STEP      4, STRESS PERIOD     36
 UBDSV06 SAVING              CHD IN MODEL TEST_TRANS       PACKAGE TEST_TRANS      CONNECTED TO MODEL TEST_TRANS       PACKAGE CHD              ON UNIT   1016 AT TIME STEP      4, STRESS PERIOD     36

 HEAD WILL BE SAVED ON UNIT 1017 AT END OF TIME STEP    4, STRESS PERIOD   36


  VOLUME BUDGET FOR ENTIRE MODEL AT END OF TIME STEP    4, STRESS PERIOD  36
  ---------------------------------------------------------------------------------------------------

     CUMULATIVE VOLUME      L**3       RATES FOR THIS TIME STEP      L**3/T          PACKAGE NAME    
     ------------------                 ------------------------                     ----------------

           IN:                                      IN:
           ---                                      ---
              STO-SS =          46.9880                STO-SS =       4.5574E-03     STORAGE         
              STO-SY =       29967.5983                STO-SY =           3.2082     STORAGE         
                 RCH =      167921.9852                   RCH =         238.3565     RCHA            
                 CHD =         227.2620                   CHD =           0.0000     CHD             

            TOTAL IN =      198163.8336              TOTAL IN =         241.5693

          OUT:                                     OUT:
          ----                                     ----
              STO-SS =          39.7176                STO-SS =       7.8049E-02     STORAGE         
              STO-SY =       25611.6017                STO-SY =          48.5514     STORAGE         
                 RCH =           0.0000                   RCH =           0.0000     RCHA            
                 CHD =      172513.6325                   CHD =         192.9414     CHD             

           TOTAL OUT =      198164.9518             TOTAL OUT =         241.5708

            IN - OUT =          -1.1183              IN - OUT =      -1.5296E-03

 PERCENT DISCREPANCY =          -0.00     PERCENT DISCREPANCY =          -0.00




         TIME SUMMARY AT END OF TIME STEP    4 IN STRESS PERIOD   36
                    SECONDS     MINUTES      HOURS       DAYS        YEARS
                    -----------------------------------------------------------
   TIME STEP LENGTH 2.59200E+05  4320.0      72.000      3.0000     8.21355E-03
 STRESS PERIOD TIME 1.03680E+06  17280.      288.00      12.000     3.28542E-02
         TOTAL TIME 8.92512E+07 1.48752E+06  24792.      1033.0      2.8282    
 UBDSV1 SAVING           STO-SS ON UNIT   1016 AT TIME STEP      5, STRESS PERIOD     36
 UBDSV1 SAVING           STO-SY ON UNIT   1016 AT TIME STEP      5, STRESS PERIOD     36
 UBDSV1 SAVING     FLOW-JA-FACE ON UNIT   1016 AT TIME STEP      5, STRESS PERIOD     36
 UBDSV06 SAVING              RCH IN MODEL TEST_TRANS       PACKAGE TEST_TRANS      CONNECTED TO MODEL TEST_TRANS       PACKAGE RCHA             ON UNIT   1016 AT TIME STEP      5, STRESS PERIOD     36
 UBDSV06 SAVING              CHD IN MODEL TEST_TRANS       PACKAGE TEST_TRANS      CONNECTED TO MODEL TEST_TRANS       PACKAGE CHD              ON UNIT   1016 AT TIME STEP      5, STRESS PERIOD     36

 HEAD WILL BE SAVED ON UNIT 1017 AT END OF TIME STEP    5, STRESS PERIOD   36


  VOLUME BUDGET FOR ENTIRE MODEL AT END OF TIME STEP    5, STRESS PERIOD  36
  ---------------------------------------------------------------------------------------------------

     CUMULATIVE VOLUME      L**3       RATES FOR THIS TIME STEP      L**3/T          PACKAGE NAME    
     ------------------                 ------------------------                     ----------------

           IN:                                      IN:
           ---                                      ---
              STO-SS =          46.9937                STO-SS =       1.8764E-03     STORAGE         
              STO-SY =       29971.5754                STO-SY =           1.3257     STORAGE         
                 RCH =      168637.0548                   RCH =         238.3565     RCHA            
                 CHD =         227.2620                   CHD =           0.0000     CHD             

            TOTAL IN =      198882.8858              TOTAL IN =         239.6841

          OUT:                                     OUT:
          ----                                     ----
              STO-SS =          39.9468                STO-SS =       7.6397E-02     STORAGE         
              STO-SY =       25754.1081                STO-SY =          47.5022     STORAGE         
                 RCH =           0.0000                   RCH =           0.0000     RCHA            
                 CHD =      173089.9549                   CHD =         192.1074     CHD             

           TOTAL OUT =      198884.0098             TOTAL OUT =         239.6860

            IN - OUT =          -1.1240              IN - OUT =      -1.9054E-03

 PERCENT DISCREPANCY =          -0.00     PERCENT DISCREPANCY =          -0.00




         TIME SUMMARY AT END OF TIME STEP    5 IN STRESS PERIOD   36
                    SECONDS     MINUTES      HOURS       DAYS        YEARS
                    -----------------------------------------------------------
   TIME STEP LENGTH 2.59200E+05  4320.0      72.000      3.0000     8.21355E-03
 STRESS PERIOD TIME 1.29600E+06  21600.      360.00      15.000     4.10678E-02
         TOTAL TIME 8.95104E+07 1.49184E+06  24864.      1036.0      2.8364    
 UBDSV1 SAVING           STO-SS ON UNIT   1016 AT TIME STEP      6, STRESS PERIOD     36
 UBDSV1 SAVING           STO-SY ON UNIT   1016 AT TIME STEP      6, STRESS PERIOD     36
 UBDSV1 SAVING     FLOW-JA-FACE ON UNIT   1016 AT TIME STEP      6, STRESS PERIOD     36
 UBDSV06 SAVING              RCH IN MODEL TEST_TRANS       PACKAGE TEST_TRANS      CONNECTED TO MODEL TEST_TRANS       PACKAGE RCHA             ON UNIT   1016 AT TIME STEP      6, STRESS PERIOD     36
 UBDSV06 SAVING              CHD IN MODEL TEST_TRANS       PACKAGE TEST_TRANS      CONNECTED TO MODEL TEST_TRANS       PACKAGE CHD              ON UNIT   1016 AT TIME STEP      6, STRESS PERIOD     36

 HEAD WILL BE SAVED ON UNIT 1017 AT END OF TIME STEP    6, STRESS PERIOD   36


  VOLUME BUDGET FOR ENTIRE MODEL AT END OF TIME STEP    6, STRESS PERIOD  36
  ---------------------------------------------------------------------------------------------------

     CUMULATIVE VOLUME      L**3       RATES FOR THIS TIME STEP      L**3/T          PACKAGE NAME    
     ------------------                 ------------------------                     ----------------

           IN:                                      IN:
           ---                                      ---
              STO-SS =          46.9951                STO-SS =       4.8494E-04     STORAGE         
              STO-SY =       29972.6128                STO-SY =           0.3458     STORAGE         
                 RCH =      169352.1243                   RCH =         238.3565     RCHA            
                 CHD =         227.2620                   CHD =           0.0000     CHD             

            TOTAL IN =      199598.9942              TOTAL IN =         238.7028

          OUT:                                     OUT:
          ----                                     ----
              STO-SS =          40.1728                STO-SS =       7.5328E-02     STORAGE         
              STO-SY =       25894.6315                STO-SY =          46.8411     STORAGE         
                 RCH =           0.0000                   RCH =           0.0000     RCHA            
                 CHD =      173665.3205                   CHD =         191.7885     CHD             

           TOTAL OUT =      199600.1248             TOTAL OUT =         238.7050

            IN - OUT =          -1.1306              IN - OUT =      -2.1902E-03

 PERCENT DISCREPANCY =          -0.00     PERCENT DISCREPANCY =          -0.00




         TIME SUMMARY AT END OF TIME STEP    6 IN STRESS PERIOD   36
                    SECONDS     MINUTES      HOURS       DAYS        YEARS
                    -----------------------------------------------------------
   TIME STEP LENGTH 2.59200E+05  4320.0      72.000      3.0000     8.21355E-03
 STRESS PERIOD TIME 1.55520E+06  25920.      432.00      18.000     4.92813E-02
         TOTAL TIME 8.97696E+07 1.49616E+06  24936.      1039.0      2.8446    
 UBDSV1 SAVING           STO-SS ON UNIT   1016 AT TIME STEP      7, STRESS PERIOD     36
 UBDSV1 SAVING           STO-SY ON UNIT   1016 AT TIME STEP      7, STRESS PERIOD     36
 UBDSV1 SAVING     FLOW-JA-FACE ON UNIT   1016 AT TIME STEP      7, STRESS PERIOD     36
 UBDSV06 SAVING              RCH IN MODEL TEST_TRANS       PACKAGE TEST_TRANS      CONNECTED TO MODEL TEST_TRANS       PACKAGE RCHA             ON UNIT   1016 AT TIME STEP      7, STRESS PERIOD     36
 UBDSV06 SAVING              CHD IN MODEL TEST_TRANS       PACKAGE TEST_TRANS      CONNECTED TO MODEL TEST_TRANS       PACKAGE CHD              ON UNIT   1016 AT TIME STEP      7, STRESS PERIOD     36

 HEAD WILL BE SAVED ON UNIT 1017 AT END OF TIME STEP    7, STRESS PERIOD   36


  VOLUME BUDGET FOR ENTIRE MODEL AT END OF TIME STEP    7, STRESS PERIOD  36
  ---------------------------------------------------------------------------------------------------

     CUMULATIVE VOLUME      L**3       RATES FOR THIS TIME STEP      L**3/T          PACKAGE NAME    
     ------------------                 ------------------------                     ----------------

           IN:                                      IN:
           ---                                      ---
              STO-SS =          46.9952                STO-SS =       9.4374E-06     STORAGE         
              STO-SY =       29972.6333                STO-SY =       6.8613E-03     STORAGE         
                 RCH =      170067.1938                   RCH =         238.3565     RCHA            
                 CHD =         227.2620                   CHD =           0.0000     CHD             

            TOTAL IN =      200314.0844              TOTAL IN =         238.3634

          OUT:                                     OUT:
          ----                                     ----
              STO-SS =          40.3971                STO-SS =       7.4762E-02     STORAGE         
              STO-SY =       26034.1976                STO-SY =          46.5220     STORAGE         
                 RCH =           0.0000                   RCH =           0.0000     RCHA            
                 CHD =      174240.6273                   CHD =         191.7689     CHD             

           TOTAL OUT =      200315.2220             TOTAL OUT =         238.3657

            IN - OUT =          -1.1377              IN - OUT =      -2.3671E-03

 PERCENT DISCREPANCY =          -0.00     PERCENT DISCREPANCY =          -0.00




         TIME SUMMARY AT END OF TIME STEP    7 IN STRESS PERIOD   36
                    SECONDS     MINUTES      HOURS       DAYS        YEARS
                    -----------------------------------------------------------
   TIME STEP LENGTH 2.59200E+05  4320.0      72.000      3.0000     8.21355E-03
 STRESS PERIOD TIME 1.81440E+06  30240.      504.00      21.000     5.74949E-02
         TOTAL TIME 9.00288E+07 1.50048E+06  25008.      1042.0      2.8528    
 UBDSV1 SAVING           STO-SS ON UNIT   1016 AT TIME STEP      8, STRESS PERIOD     36
 UBDSV1 SAVING           STO-SY ON UNIT   1016 AT TIME STEP      8, STRESS PERIOD     36
 UBDSV1 SAVING     FLOW-JA-FACE ON UNIT   1016 AT TIME STEP      8, STRESS PERIOD     36
 UBDSV06 SAVING              RCH IN MODEL TEST_TRANS       PACKAGE TEST_TRANS      CONNECTED TO MODEL TEST_TRANS       PACKAGE RCHA             ON UNIT   1016 AT TIME STEP      8, STRESS PERIOD     36
 UBDSV06 SAVING              CHD IN MODEL TEST_TRANS       PACKAGE TEST_TRANS      CONNECTED TO MODEL TEST_TRANS       PACKAGE CHD              ON UNIT   1016 AT TIME STEP      8, STRESS PERIOD     36

 HEAD WILL BE SAVED ON UNIT 1017 AT END OF TIME STEP    8, STRESS PERIOD   36


  VOLUME BUDGET FOR ENTIRE MODEL AT END OF TIME STEP    8, STRESS PERIOD  36
  ---------------------------------------------------------------------------------------------------

     CUMULATIVE VOLUME      L**3       RATES FOR THIS TIME STEP      L**3/T          PACKAGE NAME    
     ------------------                 ------------------------                     ----------------

           IN:                                      IN:
           ---                                      ---
              STO-SS =          46.9952                STO-SS =           0.0000     STORAGE         
              STO-SY =       29972.6333                STO-SY =           0.0000     STORAGE         
                 RCH =      170782.2633                   RCH =         238.3565     RCHA            
                 CHD =         227.2620                   CHD =           0.0000     CHD             

            TOTAL IN =      201029.1539              TOTAL IN =         238.3565

          OUT:                                     OUT:
          ----                                     ----
              STO-SS =          40.6204                STO-SS =       7.4431E-02     STORAGE         
              STO-SY =       26173.2919                STO-SY =          46.3648     STORAGE         
                 RCH =           0.0000                   RCH =           0.0000     RCHA            
                 CHD =      174816.4445                   CHD =         191.9391     CHD             

           TOTAL OUT =      201030.3568             TOTAL OUT =         238.3783

            IN - OUT =          -1.2030              IN - OUT =      -2.1763E-02

 PERCENT DISCREPANCY =          -0.00     PERCENT DISCREPANCY =          -0.01




         TIME SUMMARY AT END OF TIME STEP    8 IN STRESS PERIOD   36
                    SECONDS     MINUTES      HOURS       DAYS        YEARS
                    -----------------------------------------------------------
   TIME STEP LENGTH 2.59200E+05  4320.0      72.000      3.0000     8.21355E-03
 STRESS PERIOD TIME 2.07360E+06  34560.      576.00      24.000     6.57084E-02
         TOTAL TIME 9.02880E+07 1.50480E+06  25080.      1045.0      2.8611    
 UBDSV1 SAVING           STO-SS ON UNIT   1016 AT TIME STEP      9, STRESS PERIOD     36
 UBDSV1 SAVING           STO-SY ON UNIT   1016 AT TIME STEP      9, STRESS PERIOD     36
 UBDSV1 SAVING     FLOW-JA-FACE ON UNIT   1016 AT TIME STEP      9, STRESS PERIOD     36
 UBDSV06 SAVING              RCH IN MODEL TEST_TRANS       PACKAGE TEST_TRANS      CONNECTED TO MODEL TEST_TRANS       PACKAGE RCHA             ON UNIT   1016 AT TIME STEP      9, STRESS PERIOD     36
 UBDSV06 SAVING              CHD IN MODEL TEST_TRANS       PACKAGE TEST_TRANS      CONNECTED TO MODEL TEST_TRANS       PACKAGE CHD              ON UNIT   1016 AT TIME STEP      9, STRESS PERIOD     36

 HEAD WILL BE SAVED ON UNIT 1017 AT END OF TIME STEP    9, STRESS PERIOD   36


  VOLUME BUDGET FOR ENTIRE MODEL AT END OF TIME STEP    9, STRESS PERIOD  36
  ---------------------------------------------------------------------------------------------------

     CUMULATIVE VOLUME      L**3       RATES FOR THIS TIME STEP      L**3/T          PACKAGE NAME    
     ------------------                 ------------------------                     ----------------

           IN:                                      IN:
           ---                                      ---
              STO-SS =          46.9952                STO-SS =           0.0000     STORAGE         
              STO-SY =       29972.6333                STO-SY =           0.0000     STORAGE         
                 RCH =      171497.3329                   RCH =         238.3565     RCHA            
                 CHD =         227.2620                   CHD =           0.0000     CHD             

            TOTAL IN =      201744.2234              TOTAL IN =         238.3565

          OUT:                                     OUT:
          ----                                     ----
              STO-SS =          40.8421                STO-SS =       7.3907E-02     STORAGE         
              STO-SY =       26311.5037                STO-SY =          46.0706     STORAGE         
                 RCH =           0.0000                   RCH =           0.0000     RCHA            
                 CHD =      175393.1611                   CHD =         192.2389     CHD             

           TOTAL OUT =      201745.5070             TOTAL OUT =         238.3834

            IN - OUT =          -1.2835              IN - OUT =      -2.6862E-02

 PERCENT DISCREPANCY =          -0.00     PERCENT DISCREPANCY =          -0.01




         TIME SUMMARY AT END OF TIME STEP    9 IN STRESS PERIOD   36
                    SECONDS     MINUTES      HOURS       DAYS        YEARS
                    -----------------------------------------------------------
   TIME STEP LENGTH 2.59200E+05  4320.0      72.000      3.0000     8.21355E-03
 STRESS PERIOD TIME 2.33280E+06  38880.      648.00      27.000     7.39220E-02
         TOTAL TIME 9.05472E+07 1.50912E+06  25152.      1048.0      2.8693    
 UBDSV1 SAVING           STO-SS ON UNIT   1016 AT TIME STEP     10, STRESS PERIOD     36
 UBDSV1 SAVING           STO-SY ON UNIT   1016 AT TIME STEP     10, STRESS PERIOD     36
 UBDSV1 SAVING     FLOW-JA-FACE ON UNIT   1016 AT TIME STEP     10, STRESS PERIOD     36
 UBDSV06 SAVING              RCH IN MODEL TEST_TRANS       PACKAGE TEST_TRANS      CONNECTED TO MODEL TEST_TRANS       PACKAGE RCHA             ON UNIT   1016 AT TIME STEP     10, STRESS PERIOD     36
 UBDSV06 SAVING              CHD IN MODEL TEST_TRANS       PACKAGE TEST_TRANS      CONNECTED TO MODEL TEST_TRANS       PACKAGE CHD              ON UNIT   1016 AT TIME STEP     10, STRESS PERIOD     36

 HEAD WILL BE SAVED ON UNIT 1017 AT END OF TIME STEP   10, STRESS PERIOD   36


  VOLUME BUDGET FOR ENTIRE MODEL AT END OF TIME STEP   10, STRESS PERIOD  36
  ---------------------------------------------------------------------------------------------------

     CUMULATIVE VOLUME      L**3       RATES FOR THIS TIME STEP      L**3/T          PACKAGE NAME    
     ------------------                 ------------------------                     ----------------

           IN:                                      IN:
           ---                                      ---
              STO-SS =          46.9952                STO-SS =           0.0000     STORAGE         
              STO-SY =       29972.6333                STO-SY =           0.0000     STORAGE         
                 RCH =      172212.4024                   RCH =         238.3565     RCHA            
                 CHD =         227.2620                   CHD =           0.0000     CHD             

            TOTAL IN =      202459.2929              TOTAL IN =         238.3565

          OUT:                                     OUT:
          ----                                     ----
              STO-SS =          41.0619                STO-SS =       7.3261E-02     STORAGE         
              STO-SY =       26448.5669                STO-SY =          45.6877     STORAGE         
                 RCH =           0.0000                   RCH =           0.0000     RCHA            
                 CHD =      175971.0406                   CHD =         192.6265     CHD             

           TOTAL OUT =      202460.6694             TOTAL OUT =         238.3875

            IN - OUT =          -1.3765              IN - OUT =      -3.0975E-02

 PERCENT DISCREPANCY =          -0.00     PERCENT DISCREPANCY =          -0.01




         TIME SUMMARY AT END OF TIME STEP   10 IN STRESS PERIOD   36
                    SECONDS     MINUTES      HOURS       DAYS        YEARS
                    -----------------------------------------------------------
   TIME STEP LENGTH 2.59200E+05  4320.0      72.000      3.0000     8.21355E-03
 STRESS PERIOD TIME 2.59200E+06  43200.      720.00      30.000     8.21355E-02
         TOTAL TIME 9.08064E+07 1.51344E+06  25224.      1051.0      2.8775    

 OUTPUT CONTROL FOR STRESS PERIOD 37 IS REPEATED USING SETTINGS FROM A PREVIOUS STRESS PERIOD.


 STRESS PERIOD 37 IS TRANSIENT


                 RECHARGE =  0.2739730E-02
 UBDSV1 SAVING           STO-SS ON UNIT   1016 AT TIME STEP      1, STRESS PERIOD     37
 UBDSV1 SAVING           STO-SY ON UNIT   1016 AT TIME STEP      1, STRESS PERIOD     37
 UBDSV1 SAVING     FLOW-JA-FACE ON UNIT   1016 AT TIME STEP      1, STRESS PERIOD     37
 UBDSV06 SAVING              RCH IN MODEL TEST_TRANS       PACKAGE TEST_TRANS      CONNECTED TO MODEL TEST_TRANS       PACKAGE RCHA             ON UNIT   1016 AT TIME STEP      1, STRESS PERIOD     37
 UBDSV06 SAVING              CHD IN MODEL TEST_TRANS       PACKAGE TEST_TRANS      CONNECTED TO MODEL TEST_TRANS       PACKAGE CHD              ON UNIT   1016 AT TIME STEP      1, STRESS PERIOD     37

 HEAD WILL BE SAVED ON UNIT 1017 AT END OF TIME STEP    1, STRESS PERIOD   37


  VOLUME BUDGET FOR ENTIRE MODEL AT END OF TIME STEP    1, STRESS PERIOD  37
  ---------------------------------------------------------------------------------------------------

     CUMULATIVE VOLUME      L**3       RATES FOR THIS TIME STEP      L**3/T          PACKAGE NAME    
     ------------------                 ------------------------                     ----------------

           IN:                                      IN:
           ---                                      ---
              STO-SS =          47.4659                STO-SS =           0.1569     STORAGE         
              STO-SY =       30310.6039                STO-SY =         112.6568     STORAGE         
                 RCH =      172927.4719                   RCH =         238.3565     RCHA            
                 CHD =         227.2620                   CHD =           0.0000     CHD             

            TOTAL IN =      203512.8038              TOTAL IN =         351.1703

          OUT:                                     OUT:
          ----                                     ----
              STO-SS =          41.2509                STO-SS =       6.3001E-02     STORAGE         
              STO-SY =       26565.2577                STO-SY =          38.8969     STORAGE         
                 RCH =           0.0000                   RCH =           0.0000     RCHA            
                 CHD =      176907.6688                   CHD =         312.2094     CHD             

           TOTAL OUT =      203514.1773             TOTAL OUT =         351.1693

            IN - OUT =          -1.3736              IN - OUT =       9.6538E-04

 PERCENT DISCREPANCY =          -0.00     PERCENT DISCREPANCY =           0.00




         TIME SUMMARY AT END OF TIME STEP    1 IN STRESS PERIOD   37
                    SECONDS     MINUTES      HOURS       DAYS        YEARS
                    -----------------------------------------------------------
   TIME STEP LENGTH 2.59200E+05  4320.0      72.000      3.0000     8.21355E-03
 STRESS PERIOD TIME 2.59200E+05  4320.0      72.000      3.0000     8.21355E-03
         TOTAL TIME 9.10656E+07 1.51776E+06  25296.      1054.0      2.8857    
 UBDSV1 SAVING           STO-SS ON UNIT   1016 AT TIME STEP      2, STRESS PERIOD     37
 UBDSV1 SAVING           STO-SY ON UNIT   1016 AT TIME STEP      2, STRESS PERIOD     37
 UBDSV1 SAVING     FLOW-JA-FACE ON UNIT   1016 AT TIME STEP      2, STRESS PERIOD     37
 UBDSV06 SAVING              RCH IN MODEL TEST_TRANS       PACKAGE TEST_TRANS      CONNECTED TO MODEL TEST_TRANS       PACKAGE RCHA             ON UNIT   1016 AT TIME STEP      2, STRESS PERIOD     37
 UBDSV06 SAVING              CHD IN MODEL TEST_TRANS       PACKAGE TEST_TRANS      CONNECTED TO MODEL TEST_TRANS       PACKAGE CHD              ON UNIT   1016 AT TIME STEP      2, STRESS PERIOD     37

 HEAD WILL BE SAVED ON UNIT 1017 AT END OF TIME STEP    2, STRESS PERIOD   37


  VOLUME BUDGET FOR ENTIRE MODEL AT END OF TIME STEP    2, STRESS PERIOD  37
  ---------------------------------------------------------------------------------------------------

     CUMULATIVE VOLUME      L**3       RATES FOR THIS TIME STEP      L**3/T          PACKAGE NAME    
     ------------------                 ------------------------                     ----------------

           IN:                                      IN:
           ---                                      ---
              STO-SS =          47.7570                STO-SS =       9.7021E-02     STORAGE         
              STO-SY =       30517.4098                STO-SY =          68.9353     STORAGE         
                 RCH =      173642.5415                   RCH =         238.3565     RCHA            
                 CHD =         227.2620                   CHD =           0.0000     CHD             

            TOTAL IN =      204434.9703              TOTAL IN =         307.3889

          OUT:                                     OUT:
          ----                                     ----
              STO-SS =          41.4246                STO-SS =       5.7905E-02     STORAGE         
              STO-SY =       26672.1956                STO-SY =          35.6460     STORAGE         
                 RCH =           0.0000                   RCH =           0.0000     RCHA            
                 CHD =      177722.7523                   CHD =         271.6945     CHD             

           TOTAL OUT =      204436.3725             TOTAL OUT =         307.3984

            IN - OUT =          -1.4022              IN - OUT =      -9.5302E-03

 PERCENT DISCREPANCY =          -0.00     PERCENT DISCREPANCY =          -0.00




         TIME SUMMARY AT END OF TIME STEP    2 IN STRESS PERIOD   37
                    SECONDS     MINUTES      HOURS       DAYS        YEARS
                    -----------------------------------------------------------
   TIME STEP LENGTH 2.59200E+05  4320.0      72.000      3.0000     8.21355E-03
 STRESS PERIOD TIME 5.18400E+05  8640.0      144.00      6.0000     1.64271E-02
         TOTAL TIME 9.13248E+07 1.52208E+06  25368.      1057.0      2.8939    
 UBDSV1 SAVING           STO-SS ON UNIT   1016 AT TIME STEP      3, STRESS PERIOD     37
 UBDSV1 SAVING           STO-SY ON UNIT   1016 AT TIME STEP      3, STRESS PERIOD     37
 UBDSV1 SAVING     FLOW-JA-FACE ON UNIT   1016 AT TIME STEP      3, STRESS PERIOD     37
 UBDSV06 SAVING              RCH IN MODEL TEST_TRANS       PACKAGE TEST_TRANS      CONNECTED TO MODEL TEST_TRANS       PACKAGE RCHA             ON UNIT   1016 AT TIME STEP      3, STRESS PERIOD     37
 UBDSV06 SAVING              CHD IN MODEL TEST_TRANS       PACKAGE TEST_TRANS      CONNECTED TO MODEL TEST_TRANS       PACKAGE CHD              ON UNIT   1016 AT TIME STEP      3, STRESS PERIOD     37

 HEAD WILL BE SAVED ON UNIT 1017 AT END OF TIME STEP    3, STRESS PERIOD   37


  VOLUME BUDGET FOR ENTIRE MODEL AT END OF TIME STEP    3, STRESS PERIOD  37
  ---------------------------------------------------------------------------------------------------

     CUMULATIVE VOLUME      L**3       RATES FOR THIS TIME STEP      L**3/T          PACKAGE NAME    
     ------------------                 ------------------------                     ----------------

           IN:                                      IN:
           ---                                      ---
              STO-SS =          47.9624                STO-SS =       6.8473E-02     STORAGE         
              STO-SY =       30661.9031                STO-SY =          48.1644     STORAGE         
                 RCH =      174357.6110                   RCH =         238.3565     RCHA            
                 CHD =         227.2620                   CHD =           0.0000     CHD             

            TOTAL IN =      205294.7385              TOTAL IN =         286.5894

          OUT:                                     OUT:
          ----                                     ----
              STO-SS =          41.5853                STO-SS =       5.3551E-02     STORAGE         
              STO-SY =       26770.8780                STO-SY =          32.8941     STORAGE         
                 RCH =           0.0000                   RCH =           0.0000     RCHA            
                 CHD =      178483.6941                   CHD =         253.6473     CHD             

           TOTAL OUT =      205296.1573             TOTAL OUT =         286.5950

            IN - OUT =          -1.4188              IN - OUT =      -5.5590E-03

 PERCENT DISCREPANCY =          -0.00     PERCENT DISCREPANCY =          -0.00




         TIME SUMMARY AT END OF TIME STEP    3 IN STRESS PERIOD   37
                    SECONDS     MINUTES      HOURS       DAYS        YEARS
                    -----------------------------------------------------------
   TIME STEP LENGTH 2.59200E+05  4320.0      72.000      3.0000     8.21355E-03
 STRESS PERIOD TIME 7.77600E+05  12960.      216.00      9.0000     2.46407E-02
         TOTAL TIME 9.15840E+07 1.52640E+06  25440.      1060.0      2.9021    
 UBDSV1 SAVING           STO-SS ON UNIT   1016 AT TIME STEP      4, STRESS PERIOD     37
 UBDSV1 SAVING           STO-SY ON UNIT   1016 AT TIME STEP      4, STRESS PERIOD     37
 UBDSV1 SAVING     FLOW-JA-FACE ON UNIT   1016 AT TIME STEP      4, STRESS PERIOD     37
 UBDSV06 SAVING              RCH IN MODEL TEST_TRANS       PACKAGE TEST_TRANS      CONNECTED TO MODEL TEST_TRANS       PACKAGE RCHA             ON UNIT   1016 AT TIME STEP      4, STRESS PERIOD     37
 UBDSV06 SAVING              CHD IN MODEL TEST_TRANS       PACKAGE TEST_TRANS      CONNECTED TO MODEL TEST_TRANS       PACKAGE CHD              ON UNIT   1016 AT TIME STEP      4, STRESS PERIOD     37

 HEAD WILL BE SAVED ON UNIT 1017 AT END OF TIME STEP    4, STRESS PERIOD   37


  VOLUME BUDGET FOR ENTIRE MODEL AT END OF TIME STEP    4, STRESS PERIOD  37
  ---------------------------------------------------------------------------------------------------

     CUMULATIVE VOLUME      L**3       RATES FOR THIS TIME STEP      L**3/T          PACKAGE NAME    
     ------------------                 ------------------------                     ----------------

           IN:                                      IN:
           ---                                      ---
              STO-SS =          48.1166                STO-SS =       5.1383E-02     STORAGE         
              STO-SY =       30769.5419                STO-SY =          35.8796     STORAGE         
                 RCH =      175072.6805                   RCH =         238.3565     RCHA            
                 CHD =         227.2620                   CHD =           0.0000     CHD             

            TOTAL IN =      206117.6010              TOTAL IN =         274.2875

          OUT:                                     OUT:
          ----                                     ----
              STO-SS =          41.7345                STO-SS =       4.9733E-02     STORAGE         
              STO-SY =       26862.3632                STO-SY =          30.4951     STORAGE         
                 RCH =           0.0000                   RCH =           0.0000     RCHA            
                 CHD =      179214.9308                   CHD =         243.7456     CHD             

           TOTAL OUT =      206119.0284             TOTAL OUT =         274.2904

            IN - OUT =          -1.4274              IN - OUT =      -2.8515E-03

 PERCENT DISCREPANCY =          -0.00     PERCENT DISCREPANCY =          -0.00




         TIME SUMMARY AT END OF TIME STEP    4 IN STRESS PERIOD   37
                    SECONDS     MINUTES      HOURS       DAYS        YEARS
                    -----------------------------------------------------------
   TIME STEP LENGTH 2.59200E+05  4320.0      72.000      3.0000     8.21355E-03
 STRESS PERIOD TIME 1.03680E+06  17280.      288.00      12.000     3.28542E-02
         TOTAL TIME 9.18432E+07 1.53072E+06  25512.      1063.0      2.9103    
 UBDSV1 SAVING           STO-SS ON UNIT   1016 AT TIME STEP      5, STRESS PERIOD     37
 UBDSV1 SAVING           STO-SY ON UNIT   1016 AT TIME STEP      5, STRESS PERIOD     37
 UBDSV1 SAVING     FLOW-JA-FACE ON UNIT   1016 AT TIME STEP      5, STRESS PERIOD     37
 UBDSV06 SAVING              RCH IN MODEL TEST_TRANS       PACKAGE TEST_TRANS      CONNECTED TO MODEL TEST_TRANS       PACKAGE RCHA             ON UNIT   1016 AT TIME STEP      5, STRESS PERIOD     37
 UBDSV06 SAVING              CHD IN MODEL TEST_TRANS       PACKAGE TEST_TRANS      CONNECTED TO MODEL TEST_TRANS       PACKAGE CHD              ON UNIT   1016 AT TIME STEP      5, STRESS PERIOD     37

 HEAD WILL BE SAVED ON UNIT 1017 AT END OF TIME STEP    5, STRESS PERIOD   37


  VOLUME BUDGET FOR ENTIRE MODEL AT END OF TIME STEP    5, STRESS PERIOD  37
  ---------------------------------------------------------------------------------------------------

     CUMULATIVE VOLUME      L**3       RATES FOR THIS TIME STEP      L**3/T          PACKAGE NAME    
     ------------------                 ------------------------                     ----------------

           IN:                                      IN:
           ---                                      ---
              STO-SS =          48.2359                STO-SS =       3.9790E-02     STORAGE         
              STO-SY =       30852.4625                STO-SY =          27.6402     STORAGE         
                 RCH =      175787.7501                   RCH =         238.3565     RCHA            
                 CHD =         227.2620                   CHD =           0.0000     CHD             

            TOTAL IN =      206915.7105              TOTAL IN =         266.0365

          OUT:                                     OUT:
          ----                                     ----
              STO-SS =          41.8738                STO-SS =       4.6437E-02     STORAGE         
              STO-SY =       26947.6682                STO-SY =          28.4350     STORAGE         
                 RCH =           0.0000                   RCH =           0.0000     RCHA            
                 CHD =      179927.6010                   CHD =         237.5567     CHD             

           TOTAL OUT =      206917.1429             TOTAL OUT =         266.0382

            IN - OUT =          -1.4325              IN - OUT =      -1.6850E-03

 PERCENT DISCREPANCY =          -0.00     PERCENT DISCREPANCY =          -0.00




         TIME SUMMARY AT END OF TIME STEP    5 IN STRESS PERIOD   37
                    SECONDS     MINUTES      HOURS       DAYS        YEARS
                    -----------------------------------------------------------
   TIME STEP LENGTH 2.59200E+05  4320.0      72.000      3.0000     8.21355E-03
 STRESS PERIOD TIME 1.29600E+06  21600.      360.00      15.000     4.10678E-02
         TOTAL TIME 9.21024E+07 1.53504E+06  25584.      1066.0      2.9185    
 UBDSV1 SAVING           STO-SS ON UNIT   1016 AT TIME STEP      6, STRESS PERIOD     37
 UBDSV1 SAVING           STO-SY ON UNIT   1016 AT TIME STEP      6, STRESS PERIOD     37
 UBDSV1 SAVING     FLOW-JA-FACE ON UNIT   1016 AT TIME STEP      6, STRESS PERIOD     37
 UBDSV06 SAVING              RCH IN MODEL TEST_TRANS       PACKAGE TEST_TRANS      CONNECTED TO MODEL TEST_TRANS       PACKAGE RCHA             ON UNIT   1016 AT TIME STEP      6, STRESS PERIOD     37
 UBDSV06 SAVING              CHD IN MODEL TEST_TRANS       PACKAGE TEST_TRANS      CONNECTED TO MODEL TEST_TRANS       PACKAGE CHD              ON UNIT   1016 AT TIME STEP      6, STRESS PERIOD     37

 HEAD WILL BE SAVED ON UNIT 1017 AT END OF TIME STEP    6, STRESS PERIOD   37


  VOLUME BUDGET FOR ENTIRE MODEL AT END OF TIME STEP    6, STRESS PERIOD  37
  ---------------------------------------------------------------------------------------------------

     CUMULATIVE VOLUME      L**3       RATES FOR THIS TIME STEP      L**3/T          PACKAGE NAME    
     ------------------                 ------------------------                     ----------------

           IN:                                      IN:
           ---                                      ---
              STO-SS =          48.3296                STO-SS =       3.1221E-02     STORAGE         
              STO-SY =       30917.3041                STO-SY =          21.6139     STORAGE         
                 RCH =      176502.8196                   RCH =         238.3565     RCHA            
                 CHD =         227.2620                   CHD =           0.0000     CHD             

            TOTAL IN =      207695.7153              TOTAL IN =         260.0016

          OUT:                                     OUT:
          ----                                     ----
              STO-SS =          42.0042                STO-SS =       4.3486E-02     STORAGE         
              STO-SY =       27027.4603                STO-SY =          26.5974     STORAGE         
                 RCH =           0.0000                   RCH =           0.0000     RCHA            
                 CHD =      180627.6604                   CHD =         233.3531     CHD             

           TOTAL OUT =      207697.1249             TOTAL OUT =         259.9940

            IN - OUT =          -1.4096              IN - OUT =       7.6200E-03

 PERCENT DISCREPANCY =          -0.00     PERCENT DISCREPANCY =           0.00




         TIME SUMMARY AT END OF TIME STEP    6 IN STRESS PERIOD   37
                    SECONDS     MINUTES      HOURS       DAYS        YEARS
                    -----------------------------------------------------------
   TIME STEP LENGTH 2.59200E+05  4320.0      72.000      3.0000     8.21355E-03
 STRESS PERIOD TIME 1.55520E+06  25920.      432.00      18.000     4.92813E-02
         TOTAL TIME 9.23616E+07 1.53936E+06  25656.      1069.0      2.9268    
 UBDSV1 SAVING           STO-SS ON UNIT   1016 AT TIME STEP      7, STRESS PERIOD     37
 UBDSV1 SAVING           STO-SY ON UNIT   1016 AT TIME STEP      7, STRESS PERIOD     37
 UBDSV1 SAVING     FLOW-JA-FACE ON UNIT   1016 AT TIME STEP      7, STRESS PERIOD     37
 UBDSV06 SAVING              RCH IN MODEL TEST_TRANS       PACKAGE TEST_TRANS      CONNECTED TO MODEL TEST_TRANS       PACKAGE RCHA             ON UNIT   1016 AT TIME STEP      7, STRESS PERIOD     37
 UBDSV06 SAVING              CHD IN MODEL TEST_TRANS       PACKAGE TEST_TRANS      CONNECTED TO MODEL TEST_TRANS       PACKAGE CHD              ON UNIT   1016 AT TIME STEP      7, STRESS PERIOD     37

 HEAD WILL BE SAVED ON UNIT 1017 AT END OF TIME STEP    7, STRESS PERIOD   37


  VOLUME BUDGET FOR ENTIRE MODEL AT END OF TIME STEP    7, STRESS PERIOD  37
  ---------------------------------------------------------------------------------------------------

     CUMULATIVE VOLUME      L**3       RATES FOR THIS TIME STEP      L**3/T          PACKAGE NAME    
     ------------------                 ------------------------                     ----------------

           IN:                                      IN:
           ---                                      ---
              STO-SS =          48.4036                STO-SS =       2.4658E-02     STORAGE         
              STO-SY =       30968.3969                STO-SY =          17.0309     STORAGE         
                 RCH =      177217.8891                   RCH =         238.3565     RCHA            
                 CHD =         227.2620                   CHD =           0.0000     CHD             

            TOTAL IN =      208461.9516              TOTAL IN =         255.4121

          OUT:                                     OUT:
          ----                                     ----
              STO-SS =          42.1270                STO-SS =       4.0932E-02     STORAGE         
              STO-SY =       27102.4978                STO-SY =          25.0125     STORAGE         
                 RCH =           0.0000                   RCH =           0.0000     RCHA            
                 CHD =      181318.7180                   CHD =         230.3525     CHD             

           TOTAL OUT =      208463.3428             TOTAL OUT =         255.4060

            IN - OUT =          -1.3912              IN - OUT =       6.1230E-03

 PERCENT DISCREPANCY =          -0.00     PERCENT DISCREPANCY =           0.00




         TIME SUMMARY AT END OF TIME STEP    7 IN STRESS PERIOD   37
                    SECONDS     MINUTES      HOURS       DAYS        YEARS
                    -----------------------------------------------------------
   TIME STEP LENGTH 2.59200E+05  4320.0      72.000      3.0000     8.21355E-03
 STRESS PERIOD TIME 1.81440E+06  30240.      504.00      21.000     5.74949E-02
         TOTAL TIME 9.26208E+07 1.54368E+06  25728.      1072.0      2.9350    
 UBDSV1 SAVING           STO-SS ON UNIT   1016 AT TIME STEP      8, STRESS PERIOD     37
 UBDSV1 SAVING           STO-SY ON UNIT   1016 AT TIME STEP      8, STRESS PERIOD     37
 UBDSV1 SAVING     FLOW-JA-FACE ON UNIT   1016 AT TIME STEP      8, STRESS PERIOD     37
 UBDSV06 SAVING              RCH IN MODEL TEST_TRANS       PACKAGE TEST_TRANS      CONNECTED TO MODEL TEST_TRANS       PACKAGE RCHA             ON UNIT   1016 AT TIME STEP      8, STRESS PERIOD     37
 UBDSV06 SAVING              CHD IN MODEL TEST_TRANS       PACKAGE TEST_TRANS      CONNECTED TO MODEL TEST_TRANS       PACKAGE CHD              ON UNIT   1016 AT TIME STEP      8, STRESS PERIOD     37

 HEAD WILL BE SAVED ON UNIT 1017 AT END OF TIME STEP    8, STRESS PERIOD   37


  VOLUME BUDGET FOR ENTIRE MODEL AT END OF TIME STEP    8, STRESS PERIOD  37
  ---------------------------------------------------------------------------------------------------

     CUMULATIVE VOLUME      L**3       RATES FOR THIS TIME STEP      L**3/T          PACKAGE NAME    
     ------------------                 ------------------------                     ----------------

           IN:                                      IN:
           ---                                      ---
              STO-SS =          48.4620                STO-SS =       1.9472E-02     STORAGE         
              STO-SY =       31008.6936                STO-SY =          13.4322     STORAGE         
                 RCH =      177932.9586                   RCH =         238.3565     RCHA            
                 CHD =         227.2620                   CHD =           0.0000     CHD             

            TOTAL IN =      209217.3762              TOTAL IN =         251.8082

          OUT:                                     OUT:
          ----                                     ----
              STO-SS =          42.2431                STO-SS =       3.8700E-02     STORAGE         
              STO-SY =       27173.3930                STO-SY =          23.6317     STORAGE         
                 RCH =           0.0000                   RCH =           0.0000     RCHA            
                 CHD =      182003.1168                   CHD =         228.1329     CHD             

           TOTAL OUT =      209218.7529             TOTAL OUT =         251.8034

            IN - OUT =          -1.3767              IN - OUT =       4.8563E-03

 PERCENT DISCREPANCY =          -0.00     PERCENT DISCREPANCY =           0.00




         TIME SUMMARY AT END OF TIME STEP    8 IN STRESS PERIOD   37
                    SECONDS     MINUTES      HOURS       DAYS        YEARS
                    -----------------------------------------------------------
   TIME STEP LENGTH 2.59200E+05  4320.0      72.000      3.0000     8.21355E-03
 STRESS PERIOD TIME 2.07360E+06  34560.      576.00      24.000     6.57084E-02
         TOTAL TIME 9.28800E+07 1.54800E+06  25800.      1075.0      2.9432    
 UBDSV1 SAVING           STO-SS ON UNIT   1016 AT TIME STEP      9, STRESS PERIOD     37
 UBDSV1 SAVING           STO-SY ON UNIT   1016 AT TIME STEP      9, STRESS PERIOD     37
 UBDSV1 SAVING     FLOW-JA-FACE ON UNIT   1016 AT TIME STEP      9, STRESS PERIOD     37
 UBDSV06 SAVING              RCH IN MODEL TEST_TRANS       PACKAGE TEST_TRANS      CONNECTED TO MODEL TEST_TRANS       PACKAGE RCHA             ON UNIT   1016 AT TIME STEP      9, STRESS PERIOD     37
 UBDSV06 SAVING              CHD IN MODEL TEST_TRANS       PACKAGE TEST_TRANS      CONNECTED TO MODEL TEST_TRANS       PACKAGE CHD              ON UNIT   1016 AT TIME STEP      9, STRESS PERIOD     37

 HEAD WILL BE SAVED ON UNIT 1017 AT END OF TIME STEP    9, STRESS PERIOD   37


  VOLUME BUDGET FOR ENTIRE MODEL AT END OF TIME STEP    9, STRESS PERIOD  37
  ---------------------------------------------------------------------------------------------------

     CUMULATIVE VOLUME      L**3       RATES FOR THIS TIME STEP      L**3/T          PACKAGE NAME    
     ------------------                 ------------------------                     ----------------

           IN:                                      IN:
           ---                                      ---
              STO-SS =          48.5079                STO-SS =       1.5294E-02     STORAGE         
              STO-SY =       31040.3318                STO-SY =          10.5461     STORAGE         
                 RCH =      178648.0282                   RCH =         238.3565     RCHA            
                 CHD =         227.2620                   CHD =           0.0000     CHD             

            TOTAL IN =      209964.1299              TOTAL IN =         248.9179

          OUT:                                     OUT:
          ----                                     ----
              STO-SS =          42.3533                STO-SS =       3.6741E-02     STORAGE         
              STO-SY =       27240.6621                STO-SY =          22.4230     STORAGE         
                 RCH =           0.0000                   RCH =           0.0000     RCHA            
                 CHD =      182682.4736                   CHD =         226.4523     CHD             

           TOTAL OUT =      209965.4890             TOTAL OUT =         248.9120

            IN - OUT =          -1.3591              IN - OUT =       5.8402E-03

 PERCENT DISCREPANCY =          -0.00     PERCENT DISCREPANCY =           0.00




         TIME SUMMARY AT END OF TIME STEP    9 IN STRESS PERIOD   37
                    SECONDS     MINUTES      HOURS       DAYS        YEARS
                    -----------------------------------------------------------
   TIME STEP LENGTH 2.59200E+05  4320.0      72.000      3.0000     8.21355E-03
 STRESS PERIOD TIME 2.33280E+06  38880.      648.00      27.000     7.39220E-02
         TOTAL TIME 9.31392E+07 1.55232E+06  25872.      1078.0      2.9514    
 UBDSV1 SAVING           STO-SS ON UNIT   1016 AT TIME STEP     10, STRESS PERIOD     37
 UBDSV1 SAVING           STO-SY ON UNIT   1016 AT TIME STEP     10, STRESS PERIOD     37
 UBDSV1 SAVING     FLOW-JA-FACE ON UNIT   1016 AT TIME STEP     10, STRESS PERIOD     37
 UBDSV06 SAVING              RCH IN MODEL TEST_TRANS       PACKAGE TEST_TRANS      CONNECTED TO MODEL TEST_TRANS       PACKAGE RCHA             ON UNIT   1016 AT TIME STEP     10, STRESS PERIOD     37
 UBDSV06 SAVING              CHD IN MODEL TEST_TRANS       PACKAGE TEST_TRANS      CONNECTED TO MODEL TEST_TRANS       PACKAGE CHD              ON UNIT   1016 AT TIME STEP     10, STRESS PERIOD     37

 HEAD WILL BE SAVED ON UNIT 1017 AT END OF TIME STEP   10, STRESS PERIOD   37


  VOLUME BUDGET FOR ENTIRE MODEL AT END OF TIME STEP   10, STRESS PERIOD  37
  ---------------------------------------------------------------------------------------------------

     CUMULATIVE VOLUME      L**3       RATES FOR THIS TIME STEP      L**3/T          PACKAGE NAME    
     ------------------                 ------------------------                     ----------------

           IN:                                      IN:
           ---                                      ---
              STO-SS =          48.5436                STO-SS =       1.1927E-02     STORAGE         
              STO-SY =       31065.0114                STO-SY =           8.2265     STORAGE         
                 RCH =      179363.0977                   RCH =         238.3565     RCHA            
                 CHD =         227.2620                   CHD =           0.0000     CHD             

            TOTAL IN =      210703.9148              TOTAL IN =         246.5950

          OUT:                                     OUT:
          ----                                     ----
              STO-SS =          42.4586                STO-SS =       3.5068E-02     STORAGE         
              STO-SY =       27304.8435                STO-SY =          21.3938     STORAGE         
                 RCH =           0.0000                   RCH =           0.0000     RCHA            
                 CHD =      183357.9586                   CHD =         225.1617     CHD             

           TOTAL OUT =      210705.2606             TOTAL OUT =         246.5905

            IN - OUT =          -1.3459              IN - OUT =       4.4178E-03

 PERCENT DISCREPANCY =          -0.00     PERCENT DISCREPANCY =           0.00




         TIME SUMMARY AT END OF TIME STEP   10 IN STRESS PERIOD   37
                    SECONDS     MINUTES      HOURS       DAYS        YEARS
                    -----------------------------------------------------------
   TIME STEP LENGTH 2.59200E+05  4320.0      72.000      3.0000     8.21355E-03
 STRESS PERIOD TIME 2.59200E+06  43200.      720.00      30.000     8.21355E-02
         TOTAL TIME 9.33984E+07 1.55664E+06  25944.      1081.0      2.9596    

 OUTPUT CONTROL FOR STRESS PERIOD 38 IS REPEATED USING SETTINGS FROM A PREVIOUS STRESS PERIOD.


 STRESS PERIOD 38 IS TRANSIENT


                 RECHARGE =  0.3287670E-02
 UBDSV1 SAVING           STO-SS ON UNIT   1016 AT TIME STEP      1, STRESS PERIOD     38
 UBDSV1 SAVING           STO-SY ON UNIT   1016 AT TIME STEP      1, STRESS PERIOD     38
 UBDSV1 SAVING     FLOW-JA-FACE ON UNIT   1016 AT TIME STEP      1, STRESS PERIOD     38
 UBDSV06 SAVING              RCH IN MODEL TEST_TRANS       PACKAGE TEST_TRANS      CONNECTED TO MODEL TEST_TRANS       PACKAGE RCHA             ON UNIT   1016 AT TIME STEP      1, STRESS PERIOD     38
 UBDSV06 SAVING              CHD IN MODEL TEST_TRANS       PACKAGE TEST_TRANS      CONNECTED TO MODEL TEST_TRANS       PACKAGE CHD              ON UNIT   1016 AT TIME STEP      1, STRESS PERIOD     38

 HEAD WILL BE SAVED ON UNIT 1017 AT END OF TIME STEP    1, STRESS PERIOD   38


  VOLUME BUDGET FOR ENTIRE MODEL AT END OF TIME STEP    1, STRESS PERIOD  38
  ---------------------------------------------------------------------------------------------------

     CUMULATIVE VOLUME      L**3       RATES FOR THIS TIME STEP      L**3/T          PACKAGE NAME    
     ------------------                 ------------------------                     ----------------

           IN:                                      IN:
           ---                                      ---
              STO-SS =          48.5436                STO-SS =           0.0000     STORAGE         
              STO-SY =       31065.0114                STO-SY =           0.0000     STORAGE         
                 RCH =      180221.1796                   RCH =         286.0273     RCHA            
                 CHD =         227.2620                   CHD =           0.0000     CHD             

            TOTAL IN =      211561.9966              TOTAL IN =         286.0273

          OUT:                                     OUT:
          ----                                     ----
              STO-SS =          42.8094                STO-SS =           0.1169     STORAGE         
              STO-SY =       27529.7534                STO-SY =          74.9700     STORAGE         
                 RCH =           0.0000                   RCH =           0.0000     RCHA            
                 CHD =      183990.7701                   CHD =         210.9372     CHD             

           TOTAL OUT =      211563.3329             TOTAL OUT =         286.0241

            IN - OUT =          -1.3363              IN - OUT =       3.2052E-03

 PERCENT DISCREPANCY =          -0.00     PERCENT DISCREPANCY =           0.00




         TIME SUMMARY AT END OF TIME STEP    1 IN STRESS PERIOD   38
                    SECONDS     MINUTES      HOURS       DAYS        YEARS
                    -----------------------------------------------------------
   TIME STEP LENGTH 2.59200E+05  4320.0      72.000      3.0000     8.21355E-03
 STRESS PERIOD TIME 2.59200E+05  4320.0      72.000      3.0000     8.21355E-03
         TOTAL TIME 9.36576E+07 1.56096E+06  26016.      1084.0      2.9678    
 UBDSV1 SAVING           STO-SS ON UNIT   1016 AT TIME STEP      2, STRESS PERIOD     38
 UBDSV1 SAVING           STO-SY ON UNIT   1016 AT TIME STEP      2, STRESS PERIOD     38
 UBDSV1 SAVING     FLOW-JA-FACE ON UNIT   1016 AT TIME STEP      2, STRESS PERIOD     38
 UBDSV06 SAVING              RCH IN MODEL TEST_TRANS       PACKAGE TEST_TRANS      CONNECTED TO MODEL TEST_TRANS       PACKAGE RCHA             ON UNIT   1016 AT TIME STEP      2, STRESS PERIOD     38
 UBDSV06 SAVING              CHD IN MODEL TEST_TRANS       PACKAGE TEST_TRANS      CONNECTED TO MODEL TEST_TRANS       PACKAGE CHD              ON UNIT   1016 AT TIME STEP      2, STRESS PERIOD     38

 HEAD WILL BE SAVED ON UNIT 1017 AT END OF TIME STEP    2, STRESS PERIOD   38


  VOLUME BUDGET FOR ENTIRE MODEL AT END OF TIME STEP    2, STRESS PERIOD  38
  ---------------------------------------------------------------------------------------------------

     CUMULATIVE VOLUME      L**3       RATES FOR THIS TIME STEP      L**3/T          PACKAGE NAME    
     ------------------                 ------------------------                     ----------------

           IN:                                      IN:
           ---                                      ---
              STO-SS =          48.5436                STO-SS =           0.0000     STORAGE         
              STO-SY =       31065.0114                STO-SY =           0.0000     STORAGE         
                 RCH =      181079.2614                   RCH =         286.0273     RCHA            
                 CHD =         227.2620                   CHD =           0.0000     CHD             

            TOTAL IN =      212420.0785              TOTAL IN =         286.0273

          OUT:                                     OUT:
          ----                                     ----
              STO-SS =          43.1352                STO-SS =           0.1086     STORAGE         
              STO-SY =       27735.8654                STO-SY =          68.7040     STORAGE         
                 RCH =           0.0000                   RCH =           0.0000     RCHA            
                 CHD =      184642.4165                   CHD =         217.2155     CHD             

           TOTAL OUT =      212421.4170             TOTAL OUT =         286.0280

            IN - OUT =          -1.3385              IN - OUT =      -7.5628E-04

 PERCENT DISCREPANCY =          -0.00     PERCENT DISCREPANCY =          -0.00




         TIME SUMMARY AT END OF TIME STEP    2 IN STRESS PERIOD   38
                    SECONDS     MINUTES      HOURS       DAYS        YEARS
                    -----------------------------------------------------------
   TIME STEP LENGTH 2.59200E+05  4320.0      72.000      3.0000     8.21355E-03
 STRESS PERIOD TIME 5.18400E+05  8640.0      144.00      6.0000     1.64271E-02
         TOTAL TIME 9.39168E+07 1.56528E+06  26088.      1087.0      2.9760    
 UBDSV1 SAVING           STO-SS ON UNIT   1016 AT TIME STEP      3, STRESS PERIOD     38
 UBDSV1 SAVING           STO-SY ON UNIT   1016 AT TIME STEP      3, STRESS PERIOD     38
 UBDSV1 SAVING     FLOW-JA-FACE ON UNIT   1016 AT TIME STEP      3, STRESS PERIOD     38
 UBDSV06 SAVING              RCH IN MODEL TEST_TRANS       PACKAGE TEST_TRANS      CONNECTED TO MODEL TEST_TRANS       PACKAGE RCHA             ON UNIT   1016 AT TIME STEP      3, STRESS PERIOD     38
 UBDSV06 SAVING              CHD IN MODEL TEST_TRANS       PACKAGE TEST_TRANS      CONNECTED TO MODEL TEST_TRANS       PACKAGE CHD              ON UNIT   1016 AT TIME STEP      3, STRESS PERIOD     38

 HEAD WILL BE SAVED ON UNIT 1017 AT END OF TIME STEP    3, STRESS PERIOD   38


  VOLUME BUDGET FOR ENTIRE MODEL AT END OF TIME STEP    3, STRESS PERIOD  38
  ---------------------------------------------------------------------------------------------------

     CUMULATIVE VOLUME      L**3       RATES FOR THIS TIME STEP      L**3/T          PACKAGE NAME    
     ------------------                 ------------------------                     ----------------

           IN:                                      IN:
           ---                                      ---
              STO-SS =          48.5436                STO-SS =           0.0000     STORAGE         
              STO-SY =       31065.0114                STO-SY =           0.0000     STORAGE         
                 RCH =      181937.3433                   RCH =         286.0273     RCHA            
                 CHD =         227.2620                   CHD =           0.0000     CHD             

            TOTAL IN =      213278.1604              TOTAL IN =         286.0273

          OUT:                                     OUT:
          ----                                     ----
              STO-SS =          43.4480                STO-SS =           0.1043     STORAGE         
              STO-SY =       27932.6347                STO-SY =          65.5898     STORAGE         
                 RCH =           0.0000                   RCH =           0.0000     RCHA            
                 CHD =      185303.4274                   CHD =         220.3370     CHD             

           TOTAL OUT =      213279.5102             TOTAL OUT =         286.0310

            IN - OUT =          -1.3498              IN - OUT =      -3.7499E-03

 PERCENT DISCREPANCY =          -0.00     PERCENT DISCREPANCY =          -0.00




         TIME SUMMARY AT END OF TIME STEP    3 IN STRESS PERIOD   38
                    SECONDS     MINUTES      HOURS       DAYS        YEARS
                    -----------------------------------------------------------
   TIME STEP LENGTH 2.59200E+05  4320.0      72.000      3.0000     8.21355E-03
 STRESS PERIOD TIME 7.77600E+05  12960.      216.00      9.0000     2.46407E-02
         TOTAL TIME 9.41760E+07 1.56960E+06  26160.      1090.0      2.9843    
 UBDSV1 SAVING           STO-SS ON UNIT   1016 AT TIME STEP      4, STRESS PERIOD     38
 UBDSV1 SAVING           STO-SY ON UNIT   1016 AT TIME STEP      4, STRESS PERIOD     38
 UBDSV1 SAVING     FLOW-JA-FACE ON UNIT   1016 AT TIME STEP      4, STRESS PERIOD     38
 UBDSV06 SAVING              RCH IN MODEL TEST_TRANS       PACKAGE TEST_TRANS      CONNECTED TO MODEL TEST_TRANS       PACKAGE RCHA             ON UNIT   1016 AT TIME STEP      4, STRESS PERIOD     38
 UBDSV06 SAVING              CHD IN MODEL TEST_TRANS       PACKAGE TEST_TRANS      CONNECTED TO MODEL TEST_TRANS       PACKAGE CHD              ON UNIT   1016 AT TIME STEP      4, STRESS PERIOD     38

 HEAD WILL BE SAVED ON UNIT 1017 AT END OF TIME STEP    4, STRESS PERIOD   38


  VOLUME BUDGET FOR ENTIRE MODEL AT END OF TIME STEP    4, STRESS PERIOD  38
  ---------------------------------------------------------------------------------------------------

     CUMULATIVE VOLUME      L**3       RATES FOR THIS TIME STEP      L**3/T          PACKAGE NAME    
     ------------------                 ------------------------                     ----------------

           IN:                                      IN:
           ---                                      ---
              STO-SS =          48.5436                STO-SS =           0.0000     STORAGE         
              STO-SY =       31065.0114                STO-SY =           0.0000     STORAGE         
                 RCH =      182795.4252                   RCH =         286.0273     RCHA            
                 CHD =         227.2620                   CHD =           0.0000     CHD             

            TOTAL IN =      214136.2422              TOTAL IN =         286.0273

          OUT:                                     OUT:
          ----                                     ----
              STO-SS =          43.7523                STO-SS =           0.1014     STORAGE         
              STO-SY =       28123.3741                STO-SY =          63.5798     STORAGE         
                 RCH =           0.0000                   RCH =           0.0000     RCHA            
                 CHD =      185970.4898                   CHD =         222.3541     CHD             

           TOTAL OUT =      214137.6163             TOTAL OUT =         286.0354

            IN - OUT =          -1.3740              IN - OUT =      -8.0847E-03

 PERCENT DISCREPANCY =          -0.00     PERCENT DISCREPANCY =          -0.00




         TIME SUMMARY AT END OF TIME STEP    4 IN STRESS PERIOD   38
                    SECONDS     MINUTES      HOURS       DAYS        YEARS
                    -----------------------------------------------------------
   TIME STEP LENGTH 2.59200E+05  4320.0      72.000      3.0000     8.21355E-03
 STRESS PERIOD TIME 1.03680E+06  17280.      288.00      12.000     3.28542E-02
         TOTAL TIME 9.44352E+07 1.57392E+06  26232.      1093.0      2.9925    
 UBDSV1 SAVING           STO-SS ON UNIT   1016 AT TIME STEP      5, STRESS PERIOD     38
 UBDSV1 SAVING           STO-SY ON UNIT   1016 AT TIME STEP      5, STRESS PERIOD     38
 UBDSV1 SAVING     FLOW-JA-FACE ON UNIT   1016 AT TIME STEP      5, STRESS PERIOD     38
 UBDSV06 SAVING              RCH IN MODEL TEST_TRANS       PACKAGE TEST_TRANS      CONNECTED TO MODEL TEST_TRANS       PACKAGE RCHA             ON UNIT   1016 AT TIME STEP      5, STRESS PERIOD     38
 UBDSV06 SAVING              CHD IN MODEL TEST_TRANS       PACKAGE TEST_TRANS      CONNECTED TO MODEL TEST_TRANS       PACKAGE CHD              ON UNIT   1016 AT TIME STEP      5, STRESS PERIOD     38

 HEAD WILL BE SAVED ON UNIT 1017 AT END OF TIME STEP    5, STRESS PERIOD   38


  VOLUME BUDGET FOR ENTIRE MODEL AT END OF TIME STEP    5, STRESS PERIOD  38
  ---------------------------------------------------------------------------------------------------

     CUMULATIVE VOLUME      L**3       RATES FOR THIS TIME STEP      L**3/T          PACKAGE NAME    
     ------------------                 ------------------------                     ----------------

           IN:                                      IN:
           ---                                      ---
              STO-SS =          48.5436                STO-SS =           0.0000     STORAGE         
              STO-SY =       31065.0114                STO-SY =           0.0000     STORAGE         
                 RCH =      183653.5071                   RCH =         286.0273     RCHA            
                 CHD =         227.2620                   CHD =           0.0000     CHD             

            TOTAL IN =      214994.3241              TOTAL IN =         286.0273

          OUT:                                     OUT:
          ----                                     ----
              STO-SS =          44.0499                STO-SS =       9.9186E-02     STORAGE         
              STO-SY =       28309.4958                STO-SY =          62.0405     STORAGE         
                 RCH =           0.0000                   RCH =           0.0000     RCHA            
                 CHD =      186642.1753                   CHD =         223.8951     CHD             

           TOTAL OUT =      214995.7209             TOTAL OUT =         286.0349

            IN - OUT =          -1.3968              IN - OUT =      -7.5908E-03

 PERCENT DISCREPANCY =          -0.00     PERCENT DISCREPANCY =          -0.00




         TIME SUMMARY AT END OF TIME STEP    5 IN STRESS PERIOD   38
                    SECONDS     MINUTES      HOURS       DAYS        YEARS
                    -----------------------------------------------------------
   TIME STEP LENGTH 2.59200E+05  4320.0      72.000      3.0000     8.21355E-03
 STRESS PERIOD TIME 1.29600E+06  21600.      360.00      15.000     4.10678E-02
         TOTAL TIME 9.46944E+07 1.57824E+06  26304.      1096.0      3.0007    
 UBDSV1 SAVING           STO-SS ON UNIT   1016 AT TIME STEP      6, STRESS PERIOD     38
 UBDSV1 SAVING           STO-SY ON UNIT   1016 AT TIME STEP      6, STRESS PERIOD     38
 UBDSV1 SAVING     FLOW-JA-FACE ON UNIT   1016 AT TIME STEP      6, STRESS PERIOD     38
 UBDSV06 SAVING              RCH IN MODEL TEST_TRANS       PACKAGE TEST_TRANS      CONNECTED TO MODEL TEST_TRANS       PACKAGE RCHA             ON UNIT   1016 AT TIME STEP      6, STRESS PERIOD     38
 UBDSV06 SAVING              CHD IN MODEL TEST_TRANS       PACKAGE TEST_TRANS      CONNECTED TO MODEL TEST_TRANS       PACKAGE CHD              ON UNIT   1016 AT TIME STEP      6, STRESS PERIOD     38

 HEAD WILL BE SAVED ON UNIT 1017 AT END OF TIME STEP    6, STRESS PERIOD   38


  VOLUME BUDGET FOR ENTIRE MODEL AT END OF TIME STEP    6, STRESS PERIOD  38
  ---------------------------------------------------------------------------------------------------

     CUMULATIVE VOLUME      L**3       RATES FOR THIS TIME STEP      L**3/T          PACKAGE NAME    
     ------------------                 ------------------------                     ----------------

           IN:                                      IN:
           ---                                      ---
              STO-SS =          48.5436                STO-SS =           0.0000     STORAGE         
              STO-SY =       31065.0114                STO-SY =           0.0000     STORAGE         
                 RCH =      184511.5889                   RCH =         286.0273     RCHA            
                 CHD =         227.2620                   CHD =           0.0000     CHD             

            TOTAL IN =      215852.4060              TOTAL IN =         286.0273

          OUT:                                     OUT:
          ----                                     ----
              STO-SS =          44.3417                STO-SS =       9.7251E-02     STORAGE         
              STO-SY =       28491.7164                STO-SY =          60.7402     STORAGE         
                 RCH =           0.0000                   RCH =           0.0000     RCHA            
                 CHD =      187317.7664                   CHD =         225.1971     CHD             

           TOTAL OUT =      215853.8245             TOTAL OUT =         286.0345

            IN - OUT =          -1.4185              IN - OUT =      -7.2254E-03

 PERCENT DISCREPANCY =          -0.00     PERCENT DISCREPANCY =          -0.00




         TIME SUMMARY AT END OF TIME STEP    6 IN STRESS PERIOD   38
                    SECONDS     MINUTES      HOURS       DAYS        YEARS
                    -----------------------------------------------------------
   TIME STEP LENGTH 2.59200E+05  4320.0      72.000      3.0000     8.21355E-03
 STRESS PERIOD TIME 1.55520E+06  25920.      432.00      18.000     4.92813E-02
         TOTAL TIME 9.49536E+07 1.58256E+06  26376.      1099.0      3.0089    
 UBDSV1 SAVING           STO-SS ON UNIT   1016 AT TIME STEP      7, STRESS PERIOD     38
 UBDSV1 SAVING           STO-SY ON UNIT   1016 AT TIME STEP      7, STRESS PERIOD     38
 UBDSV1 SAVING     FLOW-JA-FACE ON UNIT   1016 AT TIME STEP      7, STRESS PERIOD     38
 UBDSV06 SAVING              RCH IN MODEL TEST_TRANS       PACKAGE TEST_TRANS      CONNECTED TO MODEL TEST_TRANS       PACKAGE RCHA             ON UNIT   1016 AT TIME STEP      7, STRESS PERIOD     38
 UBDSV06 SAVING              CHD IN MODEL TEST_TRANS       PACKAGE TEST_TRANS      CONNECTED TO MODEL TEST_TRANS       PACKAGE CHD              ON UNIT   1016 AT TIME STEP      7, STRESS PERIOD     38

 HEAD WILL BE SAVED ON UNIT 1017 AT END OF TIME STEP    7, STRESS PERIOD   38


  VOLUME BUDGET FOR ENTIRE MODEL AT END OF TIME STEP    7, STRESS PERIOD  38
  ---------------------------------------------------------------------------------------------------

     CUMULATIVE VOLUME      L**3       RATES FOR THIS TIME STEP      L**3/T          PACKAGE NAME    
     ------------------                 ------------------------                     ----------------

           IN:                                      IN:
           ---                                      ---
              STO-SS =          48.5436                STO-SS =           0.0000     STORAGE         
              STO-SY =       31065.0114                STO-SY =           0.0000     STORAGE         
                 RCH =      185369.6708                   RCH =         286.0273     RCHA            
                 CHD =         227.2620                   CHD =           0.0000     CHD             

            TOTAL IN =      216710.4879              TOTAL IN =         286.0273

          OUT:                                     OUT:
          ----                                     ----
              STO-SS =          44.6281                STO-SS =       9.5493E-02     STORAGE         
              STO-SY =       28670.4390                STO-SY =          59.5742     STORAGE         
                 RCH =           0.0000                   RCH =           0.0000     RCHA            
                 CHD =      187996.8601                   CHD =         226.3646     CHD             

           TOTAL OUT =      216711.9272             TOTAL OUT =         286.0343

            IN - OUT =          -1.4394              IN - OUT =      -6.9655E-03

 PERCENT DISCREPANCY =          -0.00     PERCENT DISCREPANCY =          -0.00




         TIME SUMMARY AT END OF TIME STEP    7 IN STRESS PERIOD   38
                    SECONDS     MINUTES      HOURS       DAYS        YEARS
                    -----------------------------------------------------------
   TIME STEP LENGTH 2.59200E+05  4320.0      72.000      3.0000     8.21355E-03
 STRESS PERIOD TIME 1.81440E+06  30240.      504.00      21.000     5.74949E-02
         TOTAL TIME 9.52128E+07 1.58688E+06  26448.      1102.0      3.0171    
 UBDSV1 SAVING           STO-SS ON UNIT   1016 AT TIME STEP      8, STRESS PERIOD     38
 UBDSV1 SAVING           STO-SY ON UNIT   1016 AT TIME STEP      8, STRESS PERIOD     38
 UBDSV1 SAVING     FLOW-JA-FACE ON UNIT   1016 AT TIME STEP      8, STRESS PERIOD     38
 UBDSV06 SAVING              RCH IN MODEL TEST_TRANS       PACKAGE TEST_TRANS      CONNECTED TO MODEL TEST_TRANS       PACKAGE RCHA             ON UNIT   1016 AT TIME STEP      8, STRESS PERIOD     38
 UBDSV06 SAVING              CHD IN MODEL TEST_TRANS       PACKAGE TEST_TRANS      CONNECTED TO MODEL TEST_TRANS       PACKAGE CHD              ON UNIT   1016 AT TIME STEP      8, STRESS PERIOD     38

 HEAD WILL BE SAVED ON UNIT 1017 AT END OF TIME STEP    8, STRESS PERIOD   38


  VOLUME BUDGET FOR ENTIRE MODEL AT END OF TIME STEP    8, STRESS PERIOD  38
  ---------------------------------------------------------------------------------------------------

     CUMULATIVE VOLUME      L**3       RATES FOR THIS TIME STEP      L**3/T          PACKAGE NAME    
     ------------------                 ------------------------                     ----------------

           IN:                                      IN:
           ---                                      ---
              STO-SS =          48.5436                STO-SS =           0.0000     STORAGE         
              STO-SY =       31065.0114                STO-SY =           0.0000     STORAGE         
                 RCH =      186227.7527                   RCH =         286.0273     RCHA            
                 CHD =         227.2620                   CHD =           0.0000     CHD             

            TOTAL IN =      217568.5697              TOTAL IN =         286.0273

          OUT:                                     OUT:
          ----                                     ----
              STO-SS =          44.9097                STO-SS =       9.3844E-02     STORAGE         
              STO-SY =       28845.9102                STO-SY =          58.4904     STORAGE         
                 RCH =           0.0000                   RCH =           0.0000     RCHA            
                 CHD =      188679.2096                   CHD =         227.4498     CHD             

           TOTAL OUT =      217570.0294             TOTAL OUT =         286.0341

            IN - OUT =          -1.4597              IN - OUT =      -6.7796E-03

 PERCENT DISCREPANCY =          -0.00     PERCENT DISCREPANCY =          -0.00




         TIME SUMMARY AT END OF TIME STEP    8 IN STRESS PERIOD   38
                    SECONDS     MINUTES      HOURS       DAYS        YEARS
                    -----------------------------------------------------------
   TIME STEP LENGTH 2.59200E+05  4320.0      72.000      3.0000     8.21355E-03
 STRESS PERIOD TIME 2.07360E+06  34560.      576.00      24.000     6.57084E-02
         TOTAL TIME 9.54720E+07 1.59120E+06  26520.      1105.0      3.0253    
 UBDSV1 SAVING           STO-SS ON UNIT   1016 AT TIME STEP      9, STRESS PERIOD     38
 UBDSV1 SAVING           STO-SY ON UNIT   1016 AT TIME STEP      9, STRESS PERIOD     38
 UBDSV1 SAVING     FLOW-JA-FACE ON UNIT   1016 AT TIME STEP      9, STRESS PERIOD     38
 UBDSV06 SAVING              RCH IN MODEL TEST_TRANS       PACKAGE TEST_TRANS      CONNECTED TO MODEL TEST_TRANS       PACKAGE RCHA             ON UNIT   1016 AT TIME STEP      9, STRESS PERIOD     38
 UBDSV06 SAVING              CHD IN MODEL TEST_TRANS       PACKAGE TEST_TRANS      CONNECTED TO MODEL TEST_TRANS       PACKAGE CHD              ON UNIT   1016 AT TIME STEP      9, STRESS PERIOD     38

 HEAD WILL BE SAVED ON UNIT 1017 AT END OF TIME STEP    9, STRESS PERIOD   38


  VOLUME BUDGET FOR ENTIRE MODEL AT END OF TIME STEP    9, STRESS PERIOD  38
  ---------------------------------------------------------------------------------------------------

     CUMULATIVE VOLUME      L**3       RATES FOR THIS TIME STEP      L**3/T          PACKAGE NAME    
     ------------------                 ------------------------                     ----------------

           IN:                                      IN:
           ---                                      ---
              STO-SS =          48.5436                STO-SS =           0.0000     STORAGE         
              STO-SY =       31065.0114                STO-SY =           0.0000     STORAGE         
                 RCH =      187085.8345                   RCH =         286.0273     RCHA            
                 CHD =         227.2620                   CHD =           0.0000     CHD             

            TOTAL IN =      218426.6516              TOTAL IN =         286.0273

          OUT:                                     OUT:
          ----                                     ----
              STO-SS =          45.1865                STO-SS =       9.2267E-02     STORAGE         
              STO-SY =       29018.2923                STO-SY =          57.4607     STORAGE         
                 RCH =           0.0000                   RCH =           0.0000     RCHA            
                 CHD =      189364.6525                   CHD =         228.4810     CHD             

           TOTAL OUT =      218428.1312             TOTAL OUT =         286.0339

            IN - OUT =          -1.4796              IN - OUT =      -6.6420E-03

 PERCENT DISCREPANCY =          -0.00     PERCENT DISCREPANCY =          -0.00




         TIME SUMMARY AT END OF TIME STEP    9 IN STRESS PERIOD   38
                    SECONDS     MINUTES      HOURS       DAYS        YEARS
                    -----------------------------------------------------------
   TIME STEP LENGTH 2.59200E+05  4320.0      72.000      3.0000     8.21355E-03
 STRESS PERIOD TIME 2.33280E+06  38880.      648.00      27.000     7.39220E-02
         TOTAL TIME 9.57312E+07 1.59552E+06  26592.      1108.0      3.0335    
 UBDSV1 SAVING           STO-SS ON UNIT   1016 AT TIME STEP     10, STRESS PERIOD     38
 UBDSV1 SAVING           STO-SY ON UNIT   1016 AT TIME STEP     10, STRESS PERIOD     38
 UBDSV1 SAVING     FLOW-JA-FACE ON UNIT   1016 AT TIME STEP     10, STRESS PERIOD     38
 UBDSV06 SAVING              RCH IN MODEL TEST_TRANS       PACKAGE TEST_TRANS      CONNECTED TO MODEL TEST_TRANS       PACKAGE RCHA             ON UNIT   1016 AT TIME STEP     10, STRESS PERIOD     38
 UBDSV06 SAVING              CHD IN MODEL TEST_TRANS       PACKAGE TEST_TRANS      CONNECTED TO MODEL TEST_TRANS       PACKAGE CHD              ON UNIT   1016 AT TIME STEP     10, STRESS PERIOD     38

 HEAD WILL BE SAVED ON UNIT 1017 AT END OF TIME STEP   10, STRESS PERIOD   38


  VOLUME BUDGET FOR ENTIRE MODEL AT END OF TIME STEP   10, STRESS PERIOD  38
  ---------------------------------------------------------------------------------------------------

     CUMULATIVE VOLUME      L**3       RATES FOR THIS TIME STEP      L**3/T          PACKAGE NAME    
     ------------------                 ------------------------                     ----------------

           IN:                                      IN:
           ---                                      ---
              STO-SS =          48.5436                STO-SS =           0.0000     STORAGE         
              STO-SY =       31065.0114                STO-SY =           0.0000     STORAGE         
                 RCH =      187943.9164                   RCH =         286.0273     RCHA            
                 CHD =         227.2620                   CHD =           0.0000     CHD             

            TOTAL IN =      219284.7335              TOTAL IN =         286.0273

          OUT:                                     OUT:
          ----                                     ----
              STO-SS =          45.4587                STO-SS =       9.0740E-02     STORAGE         
              STO-SY =       29187.6988                STO-SY =          56.4689     STORAGE         
                 RCH =           0.0000                   RCH =           0.0000     RCHA            
                 CHD =      190053.0752                   CHD =         229.4742     CHD             

           TOTAL OUT =      219286.2327             TOTAL OUT =         286.0338

            IN - OUT =          -1.4993              IN - OUT =      -6.5354E-03

 PERCENT DISCREPANCY =          -0.00     PERCENT DISCREPANCY =          -0.00




         TIME SUMMARY AT END OF TIME STEP   10 IN STRESS PERIOD   38
                    SECONDS     MINUTES      HOURS       DAYS        YEARS
                    -----------------------------------------------------------
   TIME STEP LENGTH 2.59200E+05  4320.0      72.000      3.0000     8.21355E-03
 STRESS PERIOD TIME 2.59200E+06  43200.      720.00      30.000     8.21355E-02
         TOTAL TIME 9.59904E+07 1.59984E+06  26664.      1111.0      3.0418    

 OUTPUT CONTROL FOR STRESS PERIOD 39 IS REPEATED USING SETTINGS FROM A PREVIOUS STRESS PERIOD.


 STRESS PERIOD 39 IS TRANSIENT


                 RECHARGE =  0.2465750E-02
 UBDSV1 SAVING           STO-SS ON UNIT   1016 AT TIME STEP      1, STRESS PERIOD     39
 UBDSV1 SAVING           STO-SY ON UNIT   1016 AT TIME STEP      1, STRESS PERIOD     39
 UBDSV1 SAVING     FLOW-JA-FACE ON UNIT   1016 AT TIME STEP      1, STRESS PERIOD     39
 UBDSV06 SAVING              RCH IN MODEL TEST_TRANS       PACKAGE TEST_TRANS      CONNECTED TO MODEL TEST_TRANS       PACKAGE RCHA             ON UNIT   1016 AT TIME STEP      1, STRESS PERIOD     39
 UBDSV06 SAVING              CHD IN MODEL TEST_TRANS       PACKAGE TEST_TRANS      CONNECTED TO MODEL TEST_TRANS       PACKAGE CHD              ON UNIT   1016 AT TIME STEP      1, STRESS PERIOD     39

 HEAD WILL BE SAVED ON UNIT 1017 AT END OF TIME STEP    1, STRESS PERIOD   39


  VOLUME BUDGET FOR ENTIRE MODEL AT END OF TIME STEP    1, STRESS PERIOD  39
  ---------------------------------------------------------------------------------------------------

     CUMULATIVE VOLUME      L**3       RATES FOR THIS TIME STEP      L**3/T          PACKAGE NAME    
     ------------------                 ------------------------                     ----------------

           IN:                                      IN:
           ---                                      ---
              STO-SS =          48.5668                STO-SS =       7.7188E-03     STORAGE         
              STO-SY =       31079.7056                STO-SY =           4.8981     STORAGE         
                 RCH =      188587.4772                   RCH =         214.5203     RCHA            
                 CHD =         227.2620                   CHD =           0.0000     CHD             

            TOTAL IN =      219943.0116              TOTAL IN =         219.4260

          OUT:                                     OUT:
          ----                                     ----
              STO-SS =          45.6556                STO-SS =       6.5635E-02     STORAGE         
              STO-SY =       29331.0852                STO-SY =          47.7955     STORAGE         
                 RCH =           0.0000                   RCH =           0.0000     RCHA            
                 CHD =      190567.7569                   CHD =         171.5606     CHD             

           TOTAL OUT =      219944.4978             TOTAL OUT =         219.4217

            IN - OUT =          -1.4862              IN - OUT =       4.3491E-03

 PERCENT DISCREPANCY =          -0.00     PERCENT DISCREPANCY =           0.00




         TIME SUMMARY AT END OF TIME STEP    1 IN STRESS PERIOD   39
                    SECONDS     MINUTES      HOURS       DAYS        YEARS
                    -----------------------------------------------------------
   TIME STEP LENGTH 2.59200E+05  4320.0      72.000      3.0000     8.21355E-03
 STRESS PERIOD TIME 2.59200E+05  4320.0      72.000      3.0000     8.21355E-03
         TOTAL TIME 9.62496E+07 1.60416E+06  26736.      1114.0      3.0500    
 UBDSV1 SAVING           STO-SS ON UNIT   1016 AT TIME STEP      2, STRESS PERIOD     39
 UBDSV1 SAVING           STO-SY ON UNIT   1016 AT TIME STEP      2, STRESS PERIOD     39
 UBDSV1 SAVING     FLOW-JA-FACE ON UNIT   1016 AT TIME STEP      2, STRESS PERIOD     39
 UBDSV06 SAVING              RCH IN MODEL TEST_TRANS       PACKAGE TEST_TRANS      CONNECTED TO MODEL TEST_TRANS       PACKAGE RCHA             ON UNIT   1016 AT TIME STEP      2, STRESS PERIOD     39
 UBDSV06 SAVING              CHD IN MODEL TEST_TRANS       PACKAGE TEST_TRANS      CONNECTED TO MODEL TEST_TRANS       PACKAGE CHD              ON UNIT   1016 AT TIME STEP      2, STRESS PERIOD     39

 HEAD WILL BE SAVED ON UNIT 1017 AT END OF TIME STEP    2, STRESS PERIOD   39


  VOLUME BUDGET FOR ENTIRE MODEL AT END OF TIME STEP    2, STRESS PERIOD  39
  ---------------------------------------------------------------------------------------------------

     CUMULATIVE VOLUME      L**3       RATES FOR THIS TIME STEP      L**3/T          PACKAGE NAME    
     ------------------                 ------------------------                     ----------------

           IN:                                      IN:
           ---                                      ---
              STO-SS =          48.5806                STO-SS =       4.5935E-03     STORAGE         
              STO-SY =       31088.3414                STO-SY =           2.8786     STORAGE         
                 RCH =      189231.0379                   RCH =         214.5203     RCHA            
                 CHD =         227.2620                   CHD =           0.0000     CHD             

            TOTAL IN =      220595.2219              TOTAL IN =         217.4034

          OUT:                                     OUT:
          ----                                     ----
              STO-SS =          45.7671                STO-SS =       3.7168E-02     STORAGE         
              STO-SY =       29410.3945                STO-SY =          26.4364     STORAGE         
                 RCH =           0.0000                   RCH =           0.0000     RCHA            
                 CHD =      191140.5385                   CHD =         190.9272     CHD             

           TOTAL OUT =      220596.7001             TOTAL OUT =         217.4008

            IN - OUT =          -1.4782              IN - OUT =       2.6647E-03

 PERCENT DISCREPANCY =          -0.00     PERCENT DISCREPANCY =           0.00




         TIME SUMMARY AT END OF TIME STEP    2 IN STRESS PERIOD   39
                    SECONDS     MINUTES      HOURS       DAYS        YEARS
                    -----------------------------------------------------------
   TIME STEP LENGTH 2.59200E+05  4320.0      72.000      3.0000     8.21355E-03
 STRESS PERIOD TIME 5.18400E+05  8640.0      144.00      6.0000     1.64271E-02
         TOTAL TIME 9.65088E+07 1.60848E+06  26808.      1117.0      3.0582    
 UBDSV1 SAVING           STO-SS ON UNIT   1016 AT TIME STEP      3, STRESS PERIOD     39
 UBDSV1 SAVING           STO-SY ON UNIT   1016 AT TIME STEP      3, STRESS PERIOD     39
 UBDSV1 SAVING     FLOW-JA-FACE ON UNIT   1016 AT TIME STEP      3, STRESS PERIOD     39
 UBDSV06 SAVING              RCH IN MODEL TEST_TRANS       PACKAGE TEST_TRANS      CONNECTED TO MODEL TEST_TRANS       PACKAGE RCHA             ON UNIT   1016 AT TIME STEP      3, STRESS PERIOD     39
 UBDSV06 SAVING              CHD IN MODEL TEST_TRANS       PACKAGE TEST_TRANS      CONNECTED TO MODEL TEST_TRANS       PACKAGE CHD              ON UNIT   1016 AT TIME STEP      3, STRESS PERIOD     39

 HEAD WILL BE SAVED ON UNIT 1017 AT END OF TIME STEP    3, STRESS PERIOD   39


  VOLUME BUDGET FOR ENTIRE MODEL AT END OF TIME STEP    3, STRESS PERIOD  39
  ---------------------------------------------------------------------------------------------------

     CUMULATIVE VOLUME      L**3       RATES FOR THIS TIME STEP      L**3/T          PACKAGE NAME    
     ------------------                 ------------------------                     ----------------

           IN:                                      IN:
           ---                                      ---
              STO-SS =          48.5888                STO-SS =       2.7292E-03     STORAGE         
              STO-SY =       31093.4271                STO-SY =           1.6952     STORAGE         
                 RCH =      189874.5987                   RCH =         214.5203     RCHA            
                 CHD =         227.2620                   CHD =           0.0000     CHD             

            TOTAL IN =      221243.8766              TOTAL IN =         216.2182

          OUT:                                     OUT:
          ----                                     ----
              STO-SS =          45.8420                STO-SS =       2.4961E-02     STORAGE         
              STO-SY =       29462.8266                STO-SY =          17.4774     STORAGE         
                 RCH =           0.0000                   RCH =           0.0000     RCHA            
                 CHD =      191736.6868                   CHD =         198.7161     CHD             

           TOTAL OUT =      221245.3553             TOTAL OUT =         216.2184

            IN - OUT =          -1.4788              IN - OUT =      -1.8585E-04

 PERCENT DISCREPANCY =          -0.00     PERCENT DISCREPANCY =          -0.00




         TIME SUMMARY AT END OF TIME STEP    3 IN STRESS PERIOD   39
                    SECONDS     MINUTES      HOURS       DAYS        YEARS
                    -----------------------------------------------------------
   TIME STEP LENGTH 2.59200E+05  4320.0      72.000      3.0000     8.21355E-03
 STRESS PERIOD TIME 7.77600E+05  12960.      216.00      9.0000     2.46407E-02
         TOTAL TIME 9.67680E+07 1.61280E+06  26880.      1120.0      3.0664    
 UBDSV1 SAVING           STO-SS ON UNIT   1016 AT TIME STEP      4, STRESS PERIOD     39
 UBDSV1 SAVING           STO-SY ON UNIT   1016 AT TIME STEP      4, STRESS PERIOD     39
 UBDSV1 SAVING     FLOW-JA-FACE ON UNIT   1016 AT TIME STEP      4, STRESS PERIOD     39
 UBDSV06 SAVING              RCH IN MODEL TEST_TRANS       PACKAGE TEST_TRANS      CONNECTED TO MODEL TEST_TRANS       PACKAGE RCHA             ON UNIT   1016 AT TIME STEP      4, STRESS PERIOD     39
 UBDSV06 SAVING              CHD IN MODEL TEST_TRANS       PACKAGE TEST_TRANS      CONNECTED TO MODEL TEST_TRANS       PACKAGE CHD              ON UNIT   1016 AT TIME STEP      4, STRESS PERIOD     39

 HEAD WILL BE SAVED ON UNIT 1017 AT END OF TIME STEP    4, STRESS PERIOD   39


  VOLUME BUDGET FOR ENTIRE MODEL AT END OF TIME STEP    4, STRESS PERIOD  39
  ---------------------------------------------------------------------------------------------------

     CUMULATIVE VOLUME      L**3       RATES FOR THIS TIME STEP      L**3/T          PACKAGE NAME    
     ------------------                 ------------------------                     ----------------

           IN:                                      IN:
           ---                                      ---
              STO-SS =          48.5934                STO-SS =       1.5566E-03     STORAGE         
              STO-SY =       31096.3095                STO-SY =           0.9608     STORAGE         
                 RCH =      190518.1594                   RCH =         214.5203     RCHA            
                 CHD =         227.2620                   CHD =           0.0000     CHD             

            TOTAL IN =      221890.3244              TOTAL IN =         215.4826

          OUT:                                     OUT:
          ----                                     ----
              STO-SS =          45.8975                STO-SS =       1.8499E-02     STORAGE         
              STO-SY =       29501.2378                STO-SY =          12.8037     STORAGE         
                 RCH =           0.0000                   RCH =           0.0000     RCHA            
                 CHD =      192344.6735                   CHD =         202.6622     CHD             

           TOTAL OUT =      221891.8087             TOTAL OUT =         215.4845

            IN - OUT =          -1.4843              IN - OUT =      -1.8458E-03

 PERCENT DISCREPANCY =          -0.00     PERCENT DISCREPANCY =          -0.00




         TIME SUMMARY AT END OF TIME STEP    4 IN STRESS PERIOD   39
                    SECONDS     MINUTES      HOURS       DAYS        YEARS
                    -----------------------------------------------------------
   TIME STEP LENGTH 2.59200E+05  4320.0      72.000      3.0000     8.21355E-03
 STRESS PERIOD TIME 1.03680E+06  17280.      288.00      12.000     3.28542E-02
         TOTAL TIME 9.70272E+07 1.61712E+06  26952.      1123.0      3.0746    
 UBDSV1 SAVING           STO-SS ON UNIT   1016 AT TIME STEP      5, STRESS PERIOD     39
 UBDSV1 SAVING           STO-SY ON UNIT   1016 AT TIME STEP      5, STRESS PERIOD     39
 UBDSV1 SAVING     FLOW-JA-FACE ON UNIT   1016 AT TIME STEP      5, STRESS PERIOD     39
 UBDSV06 SAVING              RCH IN MODEL TEST_TRANS       PACKAGE TEST_TRANS      CONNECTED TO MODEL TEST_TRANS       PACKAGE RCHA             ON UNIT   1016 AT TIME STEP      5, STRESS PERIOD     39
 UBDSV06 SAVING              CHD IN MODEL TEST_TRANS       PACKAGE TEST_TRANS      CONNECTED TO MODEL TEST_TRANS       PACKAGE CHD              ON UNIT   1016 AT TIME STEP      5, STRESS PERIOD     39

 HEAD WILL BE SAVED ON UNIT 1017 AT END OF TIME STEP    5, STRESS PERIOD   39


  VOLUME BUDGET FOR ENTIRE MODEL AT END OF TIME STEP    5, STRESS PERIOD  39
  ---------------------------------------------------------------------------------------------------

     CUMULATIVE VOLUME      L**3       RATES FOR THIS TIME STEP      L**3/T          PACKAGE NAME    
     ------------------                 ------------------------                     ----------------

           IN:                                      IN:
           ---                                      ---
              STO-SS =          48.5958                STO-SS =       7.7796E-04     STORAGE         
              STO-SY =       31097.7419                STO-SY =           0.4775     STORAGE         
                 RCH =      191161.7202                   RCH =         214.5203     RCHA            
                 CHD =         227.2620                   CHD =           0.0000     CHD             

            TOTAL IN =      222535.3199              TOTAL IN =         214.9985

          OUT:                                     OUT:
          ----                                     ----
              STO-SS =          45.9412                STO-SS =       1.4564E-02     STORAGE         
              STO-SY =       29531.2012                STO-SY =           9.9878     STORAGE         
                 RCH =           0.0000                   RCH =           0.0000     RCHA            
                 CHD =      192959.6750                   CHD =         205.0005     CHD             

           TOTAL OUT =      222536.8174             TOTAL OUT =         215.0029

            IN - OUT =          -1.4975              IN - OUT =      -4.3958E-03

 PERCENT DISCREPANCY =          -0.00     PERCENT DISCREPANCY =          -0.00




         TIME SUMMARY AT END OF TIME STEP    5 IN STRESS PERIOD   39
                    SECONDS     MINUTES      HOURS       DAYS        YEARS
                    -----------------------------------------------------------
   TIME STEP LENGTH 2.59200E+05  4320.0      72.000      3.0000     8.21355E-03
 STRESS PERIOD TIME 1.29600E+06  21600.      360.00      15.000     4.10678E-02
         TOTAL TIME 9.72864E+07 1.62144E+06  27024.      1126.0      3.0828    
 UBDSV1 SAVING           STO-SS ON UNIT   1016 AT TIME STEP      6, STRESS PERIOD     39
 UBDSV1 SAVING           STO-SY ON UNIT   1016 AT TIME STEP      6, STRESS PERIOD     39
 UBDSV1 SAVING     FLOW-JA-FACE ON UNIT   1016 AT TIME STEP      6, STRESS PERIOD     39
 UBDSV06 SAVING              RCH IN MODEL TEST_TRANS       PACKAGE TEST_TRANS      CONNECTED TO MODEL TEST_TRANS       PACKAGE RCHA             ON UNIT   1016 AT TIME STEP      6, STRESS PERIOD     39
 UBDSV06 SAVING              CHD IN MODEL TEST_TRANS       PACKAGE TEST_TRANS      CONNECTED TO MODEL TEST_TRANS       PACKAGE CHD              ON UNIT   1016 AT TIME STEP      6, STRESS PERIOD     39

 HEAD WILL BE SAVED ON UNIT 1017 AT END OF TIME STEP    6, STRESS PERIOD   39


  VOLUME BUDGET FOR ENTIRE MODEL AT END OF TIME STEP    6, STRESS PERIOD  39
  ---------------------------------------------------------------------------------------------------

     CUMULATIVE VOLUME      L**3       RATES FOR THIS TIME STEP      L**3/T          PACKAGE NAME    
     ------------------                 ------------------------                     ----------------

           IN:                                      IN:
           ---                                      ---
              STO-SS =          48.5967                STO-SS =       2.9799E-04     STORAGE         
              STO-SY =       31098.2878                STO-SY =           0.1820     STORAGE         
                 RCH =      191805.2809                   RCH =         214.5203     RCHA            
                 CHD =         227.2620                   CHD =           0.0000     CHD             

            TOTAL IN =      223179.4274              TOTAL IN =         214.7025

          OUT:                                     OUT:
          ----                                     ----
              STO-SS =          45.9772                STO-SS =       1.1995E-02     STORAGE         
              STO-SY =       29555.6824                STO-SY =           8.1604     STORAGE         
                 RCH =           0.0000                   RCH =           0.0000     RCHA            
                 CHD =      193579.2759                   CHD =         206.5336     CHD             

           TOTAL OUT =      223180.9355             TOTAL OUT =         214.7060

            IN - OUT =          -1.5080              IN - OUT =      -3.5111E-03

 PERCENT DISCREPANCY =          -0.00     PERCENT DISCREPANCY =          -0.00




         TIME SUMMARY AT END OF TIME STEP    6 IN STRESS PERIOD   39
                    SECONDS     MINUTES      HOURS       DAYS        YEARS
                    -----------------------------------------------------------
   TIME STEP LENGTH 2.59200E+05  4320.0      72.000      3.0000     8.21355E-03
 STRESS PERIOD TIME 1.55520E+06  25920.      432.00      18.000     4.92813E-02
         TOTAL TIME 9.75456E+07 1.62576E+06  27096.      1129.0      3.0910    
 UBDSV1 SAVING           STO-SS ON UNIT   1016 AT TIME STEP      7, STRESS PERIOD     39
 UBDSV1 SAVING           STO-SY ON UNIT   1016 AT TIME STEP      7, STRESS PERIOD     39
 UBDSV1 SAVING     FLOW-JA-FACE ON UNIT   1016 AT TIME STEP      7, STRESS PERIOD     39
 UBDSV06 SAVING              RCH IN MODEL TEST_TRANS       PACKAGE TEST_TRANS      CONNECTED TO MODEL TEST_TRANS       PACKAGE RCHA             ON UNIT   1016 AT TIME STEP      7, STRESS PERIOD     39
 UBDSV06 SAVING              CHD IN MODEL TEST_TRANS       PACKAGE TEST_TRANS      CONNECTED TO MODEL TEST_TRANS       PACKAGE CHD              ON UNIT   1016 AT TIME STEP      7, STRESS PERIOD     39

 HEAD WILL BE SAVED ON UNIT 1017 AT END OF TIME STEP    7, STRESS PERIOD   39


  VOLUME BUDGET FOR ENTIRE MODEL AT END OF TIME STEP    7, STRESS PERIOD  39
  ---------------------------------------------------------------------------------------------------

     CUMULATIVE VOLUME      L**3       RATES FOR THIS TIME STEP      L**3/T          PACKAGE NAME    
     ------------------                 ------------------------                     ----------------

           IN:                                      IN:
           ---                                      ---
              STO-SS =          48.5968                STO-SS =       4.4236E-05     STORAGE         
              STO-SY =       31098.3685                STO-SY =       2.6887E-02     STORAGE         
                 RCH =      192448.8417                   RCH =         214.5203     RCHA            
                 CHD =         227.2620                   CHD =           0.0000     CHD             

            TOTAL IN =      223823.0690              TOTAL IN =         214.5472

          OUT:                                     OUT:
          ----                                     ----
              STO-SS =          46.0079                STO-SS =       1.0265E-02     STORAGE         
              STO-SY =       29576.4705                STO-SY =           6.9294     STORAGE         
                 RCH =           0.0000                   RCH =           0.0000     RCHA            
                 CHD =      194202.1083                   CHD =         207.6108     CHD             

           TOTAL OUT =      223824.5867             TOTAL OUT =         214.5504

            IN - OUT =          -1.5178              IN - OUT =      -3.2415E-03

 PERCENT DISCREPANCY =          -0.00     PERCENT DISCREPANCY =          -0.00




         TIME SUMMARY AT END OF TIME STEP    7 IN STRESS PERIOD   39
                    SECONDS     MINUTES      HOURS       DAYS        YEARS
                    -----------------------------------------------------------
   TIME STEP LENGTH 2.59200E+05  4320.0      72.000      3.0000     8.21355E-03
 STRESS PERIOD TIME 1.81440E+06  30240.      504.00      21.000     5.74949E-02
         TOTAL TIME 9.78048E+07 1.63008E+06  27168.      1132.0      3.0992    
 UBDSV1 SAVING           STO-SS ON UNIT   1016 AT TIME STEP      8, STRESS PERIOD     39
 UBDSV1 SAVING           STO-SY ON UNIT   1016 AT TIME STEP      8, STRESS PERIOD     39
 UBDSV1 SAVING     FLOW-JA-FACE ON UNIT   1016 AT TIME STEP      8, STRESS PERIOD     39
 UBDSV06 SAVING              RCH IN MODEL TEST_TRANS       PACKAGE TEST_TRANS      CONNECTED TO MODEL TEST_TRANS       PACKAGE RCHA             ON UNIT   1016 AT TIME STEP      8, STRESS PERIOD     39
 UBDSV06 SAVING              CHD IN MODEL TEST_TRANS       PACKAGE TEST_TRANS      CONNECTED TO MODEL TEST_TRANS       PACKAGE CHD              ON UNIT   1016 AT TIME STEP      8, STRESS PERIOD     39

 HEAD WILL BE SAVED ON UNIT 1017 AT END OF TIME STEP    8, STRESS PERIOD   39


  VOLUME BUDGET FOR ENTIRE MODEL AT END OF TIME STEP    8, STRESS PERIOD  39
  ---------------------------------------------------------------------------------------------------

     CUMULATIVE VOLUME      L**3       RATES FOR THIS TIME STEP      L**3/T          PACKAGE NAME    
     ------------------                 ------------------------                     ----------------

           IN:                                      IN:
           ---                                      ---
              STO-SS =          48.5968                STO-SS =           0.0000     STORAGE         
              STO-SY =       31098.3685                STO-SY =           0.0000     STORAGE         
                 RCH =      193092.4024                   RCH =         214.5203     RCHA            
                 CHD =         227.2620                   CHD =           0.0000     CHD             

            TOTAL IN =      224466.6297              TOTAL IN =         214.5203

          OUT:                                     OUT:
          ----                                     ----
              STO-SS =          46.0353                STO-SS =       9.1226E-03     STORAGE         
              STO-SY =       29594.7932                STO-SY =           6.1076     STORAGE         
                 RCH =           0.0000                   RCH =           0.0000     RCHA            
                 CHD =      194827.3269                   CHD =         208.4062     CHD             

           TOTAL OUT =      224468.1554             TOTAL OUT =         214.5229

            IN - OUT =          -1.5257              IN - OUT =      -2.6397E-03

 PERCENT DISCREPANCY =          -0.00     PERCENT DISCREPANCY =          -0.00




         TIME SUMMARY AT END OF TIME STEP    8 IN STRESS PERIOD   39
                    SECONDS     MINUTES      HOURS       DAYS        YEARS
                    -----------------------------------------------------------
   TIME STEP LENGTH 2.59200E+05  4320.0      72.000      3.0000     8.21355E-03
 STRESS PERIOD TIME 2.07360E+06  34560.      576.00      24.000     6.57084E-02
         TOTAL TIME 9.80640E+07 1.63440E+06  27240.      1135.0      3.1075    
 UBDSV1 SAVING           STO-SS ON UNIT   1016 AT TIME STEP      9, STRESS PERIOD     39
 UBDSV1 SAVING           STO-SY ON UNIT   1016 AT TIME STEP      9, STRESS PERIOD     39
 UBDSV1 SAVING     FLOW-JA-FACE ON UNIT   1016 AT TIME STEP      9, STRESS PERIOD     39
 UBDSV06 SAVING              RCH IN MODEL TEST_TRANS       PACKAGE TEST_TRANS      CONNECTED TO MODEL TEST_TRANS       PACKAGE RCHA             ON UNIT   1016 AT TIME STEP      9, STRESS PERIOD     39
 UBDSV06 SAVING              CHD IN MODEL TEST_TRANS       PACKAGE TEST_TRANS      CONNECTED TO MODEL TEST_TRANS       PACKAGE CHD              ON UNIT   1016 AT TIME STEP      9, STRESS PERIOD     39

 HEAD WILL BE SAVED ON UNIT 1017 AT END OF TIME STEP    9, STRESS PERIOD   39


  VOLUME BUDGET FOR ENTIRE MODEL AT END OF TIME STEP    9, STRESS PERIOD  39
  ---------------------------------------------------------------------------------------------------

     CUMULATIVE VOLUME      L**3       RATES FOR THIS TIME STEP      L**3/T          PACKAGE NAME    
     ------------------                 ------------------------                     ----------------

           IN:                                      IN:
           ---                                      ---
              STO-SS =          48.5968                STO-SS =           0.0000     STORAGE         
              STO-SY =       31098.3685                STO-SY =           0.0000     STORAGE         
                 RCH =      193735.9632                   RCH =         214.5203     RCHA            
                 CHD =         227.2620                   CHD =           0.0000     CHD             

            TOTAL IN =      225110.1905              TOTAL IN =         214.5203

          OUT:                                     OUT:
          ----                                     ----
              STO-SS =          46.0601                STO-SS =       8.2754E-03     STORAGE         
              STO-SY =       29611.2873                STO-SY =           5.4980     STORAGE         
                 RCH =           0.0000                   RCH =           0.0000     RCHA            
                 CHD =      195454.3753                   CHD =         209.0161     CHD             

           TOTAL OUT =      225111.7227             TOTAL OUT =         214.5224

            IN - OUT =          -1.5322              IN - OUT =      -2.1802E-03

 PERCENT DISCREPANCY =          -0.00     PERCENT DISCREPANCY =          -0.00




         TIME SUMMARY AT END OF TIME STEP    9 IN STRESS PERIOD   39
                    SECONDS     MINUTES      HOURS       DAYS        YEARS
                    -----------------------------------------------------------
   TIME STEP LENGTH 2.59200E+05  4320.0      72.000      3.0000     8.21355E-03
 STRESS PERIOD TIME 2.33280E+06  38880.      648.00      27.000     7.39220E-02
         TOTAL TIME 9.83232E+07 1.63872E+06  27312.      1138.0      3.1157    
 UBDSV1 SAVING           STO-SS ON UNIT   1016 AT TIME STEP     10, STRESS PERIOD     39
 UBDSV1 SAVING           STO-SY ON UNIT   1016 AT TIME STEP     10, STRESS PERIOD     39
 UBDSV1 SAVING     FLOW-JA-FACE ON UNIT   1016 AT TIME STEP     10, STRESS PERIOD     39
 UBDSV06 SAVING              RCH IN MODEL TEST_TRANS       PACKAGE TEST_TRANS      CONNECTED TO MODEL TEST_TRANS       PACKAGE RCHA             ON UNIT   1016 AT TIME STEP     10, STRESS PERIOD     39
 UBDSV06 SAVING              CHD IN MODEL TEST_TRANS       PACKAGE TEST_TRANS      CONNECTED TO MODEL TEST_TRANS       PACKAGE CHD              ON UNIT   1016 AT TIME STEP     10, STRESS PERIOD     39

 HEAD WILL BE SAVED ON UNIT 1017 AT END OF TIME STEP   10, STRESS PERIOD   39


  VOLUME BUDGET FOR ENTIRE MODEL AT END OF TIME STEP   10, STRESS PERIOD  39
  ---------------------------------------------------------------------------------------------------

     CUMULATIVE VOLUME      L**3       RATES FOR THIS TIME STEP      L**3/T          PACKAGE NAME    
     ------------------                 ------------------------                     ----------------

           IN:                                      IN:
           ---                                      ---
              STO-SS =          48.5968                STO-SS =           0.0000     STORAGE         
              STO-SY =       31098.3685                STO-SY =           0.0000     STORAGE         
                 RCH =      194379.5239                   RCH =         214.5203     RCHA            
                 CHD =         227.2620                   CHD =           0.0000     CHD             

            TOTAL IN =      225753.7512              TOTAL IN =         214.5203

          OUT:                                     OUT:
          ----                                     ----
              STO-SS =          46.0831                STO-SS =       7.6395E-03     STORAGE         
              STO-SY =       29626.4097                STO-SY =           5.0408     STORAGE         
                 RCH =           0.0000                   RCH =           0.0000     RCHA            
                 CHD =      196082.8686                   CHD =         209.4978     CHD             

           TOTAL OUT =      225755.3613             TOTAL OUT =         214.5462

            IN - OUT =          -1.6101              IN - OUT =      -2.5967E-02

 PERCENT DISCREPANCY =          -0.00     PERCENT DISCREPANCY =          -0.01




         TIME SUMMARY AT END OF TIME STEP   10 IN STRESS PERIOD   39
                    SECONDS     MINUTES      HOURS       DAYS        YEARS
                    -----------------------------------------------------------
   TIME STEP LENGTH 2.59200E+05  4320.0      72.000      3.0000     8.21355E-03
 STRESS PERIOD TIME 2.59200E+06  43200.      720.00      30.000     8.21355E-02
         TOTAL TIME 9.85824E+07 1.64304E+06  27384.      1141.0      3.1239    

 OUTPUT CONTROL FOR STRESS PERIOD 40 IS REPEATED USING SETTINGS FROM A PREVIOUS STRESS PERIOD.


 STRESS PERIOD 40 IS TRANSIENT


                 RECHARGE =  0.1643840E-02
 UBDSV1 SAVING           STO-SS ON UNIT   1016 AT TIME STEP      1, STRESS PERIOD     40
 UBDSV1 SAVING           STO-SY ON UNIT   1016 AT TIME STEP      1, STRESS PERIOD     40
 UBDSV1 SAVING     FLOW-JA-FACE ON UNIT   1016 AT TIME STEP      1, STRESS PERIOD     40
 UBDSV06 SAVING              RCH IN MODEL TEST_TRANS       PACKAGE TEST_TRANS      CONNECTED TO MODEL TEST_TRANS       PACKAGE RCHA             ON UNIT   1016 AT TIME STEP      1, STRESS PERIOD     40
 UBDSV06 SAVING              CHD IN MODEL TEST_TRANS       PACKAGE TEST_TRANS      CONNECTED TO MODEL TEST_TRANS       PACKAGE CHD              ON UNIT   1016 AT TIME STEP      1, STRESS PERIOD     40

 HEAD WILL BE SAVED ON UNIT 1017 AT END OF TIME STEP    1, STRESS PERIOD   40


  VOLUME BUDGET FOR ENTIRE MODEL AT END OF TIME STEP    1, STRESS PERIOD  40
  ---------------------------------------------------------------------------------------------------

     CUMULATIVE VOLUME      L**3       RATES FOR THIS TIME STEP      L**3/T          PACKAGE NAME    
     ------------------                 ------------------------                     ----------------

           IN:                                      IN:
           ---                                      ---
              STO-SS =          48.8396                STO-SS =       8.0943E-02     STORAGE         
              STO-SY =       31247.7290                STO-SY =          49.7868     STORAGE         
                 RCH =      194808.5661                   RCH =         143.0141     RCHA            
                 CHD =         227.2620                   CHD =           0.0000     CHD             

            TOTAL IN =      226332.3968              TOTAL IN =         192.8819

          OUT:                                     OUT:
          ----                                     ----
              STO-SS =          46.3801                STO-SS =       9.9012E-02     STORAGE         
              STO-SY =       29840.4781                STO-SY =          71.3561     STORAGE         
                 RCH =           0.0000                   RCH =           0.0000     RCHA            
                 CHD =      196447.1323                   CHD =         121.4212     CHD             

           TOTAL OUT =      226333.9905             TOTAL OUT =         192.8764

            IN - OUT =          -1.5937              IN - OUT =       5.4860E-03

 PERCENT DISCREPANCY =          -0.00     PERCENT DISCREPANCY =           0.00




         TIME SUMMARY AT END OF TIME STEP    1 IN STRESS PERIOD   40
                    SECONDS     MINUTES      HOURS       DAYS        YEARS
                    -----------------------------------------------------------
   TIME STEP LENGTH 2.59200E+05  4320.0      72.000      3.0000     8.21355E-03
 STRESS PERIOD TIME 2.59200E+05  4320.0      72.000      3.0000     8.21355E-03
         TOTAL TIME 9.88416E+07 1.64736E+06  27456.      1144.0      3.1321    
 UBDSV1 SAVING           STO-SS ON UNIT   1016 AT TIME STEP      2, STRESS PERIOD     40
 UBDSV1 SAVING           STO-SY ON UNIT   1016 AT TIME STEP      2, STRESS PERIOD     40
 UBDSV1 SAVING     FLOW-JA-FACE ON UNIT   1016 AT TIME STEP      2, STRESS PERIOD     40
 UBDSV06 SAVING              RCH IN MODEL TEST_TRANS       PACKAGE TEST_TRANS      CONNECTED TO MODEL TEST_TRANS       PACKAGE RCHA             ON UNIT   1016 AT TIME STEP      2, STRESS PERIOD     40
 UBDSV06 SAVING              CHD IN MODEL TEST_TRANS       PACKAGE TEST_TRANS      CONNECTED TO MODEL TEST_TRANS       PACKAGE CHD              ON UNIT   1016 AT TIME STEP      2, STRESS PERIOD     40

 HEAD WILL BE SAVED ON UNIT 1017 AT END OF TIME STEP    2, STRESS PERIOD   40


  VOLUME BUDGET FOR ENTIRE MODEL AT END OF TIME STEP    2, STRESS PERIOD  40
  ---------------------------------------------------------------------------------------------------

     CUMULATIVE VOLUME      L**3       RATES FOR THIS TIME STEP      L**3/T          PACKAGE NAME    
     ------------------                 ------------------------                     ----------------

           IN:                                      IN:
           ---                                      ---
              STO-SS =          49.0620                STO-SS =       7.4142E-02     STORAGE         
              STO-SY =       31384.0857                STO-SY =          45.4522     STORAGE         
                 RCH =      195237.6084                   RCH =         143.0141     RCHA            
                 CHD =         227.2620                   CHD =           0.0000     CHD             

            TOTAL IN =      226898.0181              TOTAL IN =         188.5404

          OUT:                                     OUT:
          ----                                     ----
              STO-SS =          46.5364                STO-SS =       5.2114E-02     STORAGE         
              STO-SY =       29950.9227                STO-SY =          36.8149     STORAGE         
                 RCH =           0.0000                   RCH =           0.0000     RCHA            
                 CHD =      196902.1463                   CHD =         151.6713     CHD             

           TOTAL OUT =      226899.6055             TOTAL OUT =         188.5383

            IN - OUT =          -1.5873              IN - OUT =       2.1053E-03

 PERCENT DISCREPANCY =          -0.00     PERCENT DISCREPANCY =           0.00




         TIME SUMMARY AT END OF TIME STEP    2 IN STRESS PERIOD   40
                    SECONDS     MINUTES      HOURS       DAYS        YEARS
                    -----------------------------------------------------------
   TIME STEP LENGTH 2.59200E+05  4320.0      72.000      3.0000     8.21355E-03
 STRESS PERIOD TIME 5.18400E+05  8640.0      144.00      6.0000     1.64271E-02
         TOTAL TIME 9.91008E+07 1.65168E+06  27528.      1147.0      3.1403    
 UBDSV1 SAVING           STO-SS ON UNIT   1016 AT TIME STEP      3, STRESS PERIOD     40
 UBDSV1 SAVING           STO-SY ON UNIT   1016 AT TIME STEP      3, STRESS PERIOD     40
 UBDSV1 SAVING     FLOW-JA-FACE ON UNIT   1016 AT TIME STEP      3, STRESS PERIOD     40
 UBDSV06 SAVING              RCH IN MODEL TEST_TRANS       PACKAGE TEST_TRANS      CONNECTED TO MODEL TEST_TRANS       PACKAGE RCHA             ON UNIT   1016 AT TIME STEP      3, STRESS PERIOD     40
 UBDSV06 SAVING              CHD IN MODEL TEST_TRANS       PACKAGE TEST_TRANS      CONNECTED TO MODEL TEST_TRANS       PACKAGE CHD              ON UNIT   1016 AT TIME STEP      3, STRESS PERIOD     40

 HEAD WILL BE SAVED ON UNIT 1017 AT END OF TIME STEP    3, STRESS PERIOD   40


  VOLUME BUDGET FOR ENTIRE MODEL AT END OF TIME STEP    3, STRESS PERIOD  40
  ---------------------------------------------------------------------------------------------------

     CUMULATIVE VOLUME      L**3       RATES FOR THIS TIME STEP      L**3/T          PACKAGE NAME    
     ------------------                 ------------------------                     ----------------

           IN:                                      IN:
           ---                                      ---
              STO-SS =          49.2691                STO-SS =       6.9019E-02     STORAGE         
              STO-SY =       31510.7913                STO-SY =          42.2352     STORAGE         
                 RCH =      195666.6506                   RCH =         143.0141     RCHA            
                 CHD =         227.2620                   CHD =           0.0000     CHD             

            TOTAL IN =      227453.9731              TOTAL IN =         185.3183

          OUT:                                     OUT:
          ----                                     ----
              STO-SS =          46.6311                STO-SS =       3.1569E-02     STORAGE         
              STO-SY =       30017.1003                STO-SY =          22.0592     STORAGE         
                 RCH =           0.0000                   RCH =           0.0000     RCHA            
                 CHD =      197391.8255                   CHD =         163.2264     CHD             

           TOTAL OUT =      227455.5569             TOTAL OUT =         185.3171

            IN - OUT =          -1.5838              IN - OUT =       1.1642E-03

 PERCENT DISCREPANCY =          -0.00     PERCENT DISCREPANCY =           0.00




         TIME SUMMARY AT END OF TIME STEP    3 IN STRESS PERIOD   40
                    SECONDS     MINUTES      HOURS       DAYS        YEARS
                    -----------------------------------------------------------
   TIME STEP LENGTH 2.59200E+05  4320.0      72.000      3.0000     8.21355E-03
 STRESS PERIOD TIME 7.77600E+05  12960.      216.00      9.0000     2.46407E-02
         TOTAL TIME 9.93600E+07 1.65600E+06  27600.      1150.0      3.1485    
 UBDSV1 SAVING           STO-SS ON UNIT   1016 AT TIME STEP      4, STRESS PERIOD     40
 UBDSV1 SAVING           STO-SY ON UNIT   1016 AT TIME STEP      4, STRESS PERIOD     40
 UBDSV1 SAVING     FLOW-JA-FACE ON UNIT   1016 AT TIME STEP      4, STRESS PERIOD     40
 UBDSV06 SAVING              RCH IN MODEL TEST_TRANS       PACKAGE TEST_TRANS      CONNECTED TO MODEL TEST_TRANS       PACKAGE RCHA             ON UNIT   1016 AT TIME STEP      4, STRESS PERIOD     40
 UBDSV06 SAVING              CHD IN MODEL TEST_TRANS       PACKAGE TEST_TRANS      CONNECTED TO MODEL TEST_TRANS       PACKAGE CHD              ON UNIT   1016 AT TIME STEP      4, STRESS PERIOD     40

 HEAD WILL BE SAVED ON UNIT 1017 AT END OF TIME STEP    4, STRESS PERIOD   40


  VOLUME BUDGET FOR ENTIRE MODEL AT END OF TIME STEP    4, STRESS PERIOD  40
  ---------------------------------------------------------------------------------------------------

     CUMULATIVE VOLUME      L**3       RATES FOR THIS TIME STEP      L**3/T          PACKAGE NAME    
     ------------------                 ------------------------                     ----------------

           IN:                                      IN:
           ---                                      ---
              STO-SS =          49.4645                STO-SS =       6.5146E-02     STORAGE         
              STO-SY =       31630.2971                STO-SY =          39.8353     STORAGE         
                 RCH =      196095.6929                   RCH =         143.0141     RCHA            
                 CHD =         227.2620                   CHD =           0.0000     CHD             

            TOTAL IN =      228002.7165              TOTAL IN =         182.9145

          OUT:                                     OUT:
          ----                                     ----
              STO-SS =          46.6920                STO-SS =       2.0299E-02     STORAGE         
              STO-SY =       30059.3744                STO-SY =          14.0914     STORAGE         
                 RCH =           0.0000                   RCH =           0.0000     RCHA            
                 CHD =      197898.2347                   CHD =         168.8031     CHD             

           TOTAL OUT =      228004.3012             TOTAL OUT =         182.9147

            IN - OUT =          -1.5846              IN - OUT =      -2.5856E-04

 PERCENT DISCREPANCY =          -0.00     PERCENT DISCREPANCY =          -0.00




         TIME SUMMARY AT END OF TIME STEP    4 IN STRESS PERIOD   40
                    SECONDS     MINUTES      HOURS       DAYS        YEARS
                    -----------------------------------------------------------
   TIME STEP LENGTH 2.59200E+05  4320.0      72.000      3.0000     8.21355E-03
 STRESS PERIOD TIME 1.03680E+06  17280.      288.00      12.000     3.28542E-02
         TOTAL TIME 9.96192E+07 1.66032E+06  27672.      1153.0      3.1567    
 UBDSV1 SAVING           STO-SS ON UNIT   1016 AT TIME STEP      5, STRESS PERIOD     40
 UBDSV1 SAVING           STO-SY ON UNIT   1016 AT TIME STEP      5, STRESS PERIOD     40
 UBDSV1 SAVING     FLOW-JA-FACE ON UNIT   1016 AT TIME STEP      5, STRESS PERIOD     40
 UBDSV06 SAVING              RCH IN MODEL TEST_TRANS       PACKAGE TEST_TRANS      CONNECTED TO MODEL TEST_TRANS       PACKAGE RCHA             ON UNIT   1016 AT TIME STEP      5, STRESS PERIOD     40
 UBDSV06 SAVING              CHD IN MODEL TEST_TRANS       PACKAGE TEST_TRANS      CONNECTED TO MODEL TEST_TRANS       PACKAGE CHD              ON UNIT   1016 AT TIME STEP      5, STRESS PERIOD     40

 HEAD WILL BE SAVED ON UNIT 1017 AT END OF TIME STEP    5, STRESS PERIOD   40


  VOLUME BUDGET FOR ENTIRE MODEL AT END OF TIME STEP    5, STRESS PERIOD  40
  ---------------------------------------------------------------------------------------------------

     CUMULATIVE VOLUME      L**3       RATES FOR THIS TIME STEP      L**3/T          PACKAGE NAME    
     ------------------                 ------------------------                     ----------------

           IN:                                      IN:
           ---                                      ---
              STO-SS =          49.6506                STO-SS =       6.2021E-02     STORAGE         
              STO-SY =       31744.0458                STO-SY =          37.9162     STORAGE         
                 RCH =      196524.7351                   RCH =         143.0141     RCHA            
                 CHD =         227.2620                   CHD =           0.0000     CHD             

            TOTAL IN =      228545.6936              TOTAL IN =         180.9923

          OUT:                                     OUT:
          ----                                     ----
              STO-SS =          46.7314                STO-SS =       1.3127E-02     STORAGE         
              STO-SY =       30086.6210                STO-SY =           9.0822     STORAGE         
                 RCH =           0.0000                   RCH =           0.0000     RCHA            
                 CHD =      198413.9269                   CHD =         171.8974     CHD             

           TOTAL OUT =      228547.2793             TOTAL OUT =         180.9927

            IN - OUT =          -1.5858              IN - OUT =      -3.7702E-04

 PERCENT DISCREPANCY =          -0.00     PERCENT DISCREPANCY =          -0.00




         TIME SUMMARY AT END OF TIME STEP    5 IN STRESS PERIOD   40
                    SECONDS     MINUTES      HOURS       DAYS        YEARS
                    -----------------------------------------------------------
   TIME STEP LENGTH 2.59200E+05  4320.0      72.000      3.0000     8.21355E-03
 STRESS PERIOD TIME 1.29600E+06  21600.      360.00      15.000     4.10678E-02
         TOTAL TIME 9.98784E+07 1.66464E+06  27744.      1156.0      3.1650    
 UBDSV1 SAVING           STO-SS ON UNIT   1016 AT TIME STEP      6, STRESS PERIOD     40
 UBDSV1 SAVING           STO-SY ON UNIT   1016 AT TIME STEP      6, STRESS PERIOD     40
 UBDSV1 SAVING     FLOW-JA-FACE ON UNIT   1016 AT TIME STEP      6, STRESS PERIOD     40
 UBDSV06 SAVING              RCH IN MODEL TEST_TRANS       PACKAGE TEST_TRANS      CONNECTED TO MODEL TEST_TRANS       PACKAGE RCHA             ON UNIT   1016 AT TIME STEP      6, STRESS PERIOD     40
 UBDSV06 SAVING              CHD IN MODEL TEST_TRANS       PACKAGE TEST_TRANS      CONNECTED TO MODEL TEST_TRANS       PACKAGE CHD              ON UNIT   1016 AT TIME STEP      6, STRESS PERIOD     40

 HEAD WILL BE SAVED ON UNIT 1017 AT END OF TIME STEP    6, STRESS PERIOD   40


  VOLUME BUDGET FOR ENTIRE MODEL AT END OF TIME STEP    6, STRESS PERIOD  40
  ---------------------------------------------------------------------------------------------------

     CUMULATIVE VOLUME      L**3       RATES FOR THIS TIME STEP      L**3/T          PACKAGE NAME    
     ------------------                 ------------------------                     ----------------

           IN:                                      IN:
           ---                                      ---
              STO-SS =          49.8291                STO-SS =       5.9508E-02     STORAGE         
              STO-SY =       31853.2077                STO-SY =          36.3873     STORAGE         
                 RCH =      196953.7773                   RCH =         143.0141     RCHA            
                 CHD =         227.2620                   CHD =           0.0000     CHD             

            TOTAL IN =      229084.0762              TOTAL IN =         179.4609

          OUT:                                     OUT:
          ----                                     ----
              STO-SS =          46.7562                STO-SS =       8.2607E-03     STORAGE         
              STO-SY =       30103.7538                STO-SY =           5.7109     STORAGE         
                 RCH =           0.0000                   RCH =           0.0000     RCHA            
                 CHD =      198935.1540                   CHD =         173.7424     CHD             

           TOTAL OUT =      229085.6641             TOTAL OUT =         179.4616

            IN - OUT =          -1.5878              IN - OUT =      -6.8855E-04

 PERCENT DISCREPANCY =          -0.00     PERCENT DISCREPANCY =          -0.00




         TIME SUMMARY AT END OF TIME STEP    6 IN STRESS PERIOD   40
                    SECONDS     MINUTES      HOURS       DAYS        YEARS
                    -----------------------------------------------------------
   TIME STEP LENGTH 2.59200E+05  4320.0      72.000      3.0000     8.21355E-03
 STRESS PERIOD TIME 1.55520E+06  25920.      432.00      18.000     4.92813E-02
         TOTAL TIME 1.00138E+08 1.66896E+06  27816.      1159.0      3.1732    
 UBDSV1 SAVING           STO-SS ON UNIT   1016 AT TIME STEP      7, STRESS PERIOD     40
 UBDSV1 SAVING           STO-SY ON UNIT   1016 AT TIME STEP      7, STRESS PERIOD     40
 UBDSV1 SAVING     FLOW-JA-FACE ON UNIT   1016 AT TIME STEP      7, STRESS PERIOD     40
 UBDSV06 SAVING              RCH IN MODEL TEST_TRANS       PACKAGE TEST_TRANS      CONNECTED TO MODEL TEST_TRANS       PACKAGE RCHA             ON UNIT   1016 AT TIME STEP      7, STRESS PERIOD     40
 UBDSV06 SAVING              CHD IN MODEL TEST_TRANS       PACKAGE TEST_TRANS      CONNECTED TO MODEL TEST_TRANS       PACKAGE CHD              ON UNIT   1016 AT TIME STEP      7, STRESS PERIOD     40

 HEAD WILL BE SAVED ON UNIT 1017 AT END OF TIME STEP    7, STRESS PERIOD   40


  VOLUME BUDGET FOR ENTIRE MODEL AT END OF TIME STEP    7, STRESS PERIOD  40
  ---------------------------------------------------------------------------------------------------

     CUMULATIVE VOLUME      L**3       RATES FOR THIS TIME STEP      L**3/T          PACKAGE NAME    
     ------------------                 ------------------------                     ----------------

           IN:                                      IN:
           ---                                      ---
              STO-SS =          50.0019                STO-SS =       5.7584E-02     STORAGE         
              STO-SY =       31958.9073                STO-SY =          35.2332     STORAGE         
                 RCH =      197382.8196                   RCH =         143.0141     RCHA            
                 CHD =         227.2620                   CHD =           0.0000     CHD             

            TOTAL IN =      229618.9908              TOTAL IN =         178.3048

          OUT:                                     OUT:
          ----                                     ----
              STO-SS =          46.7711                STO-SS =       4.9542E-03     STORAGE         
              STO-SY =       30114.0390                STO-SY =           3.4284     STORAGE         
                 RCH =           0.0000                   RCH =           0.0000     RCHA            
                 CHD =      199459.7682                   CHD =         174.8714     CHD             

           TOTAL OUT =      229620.5783             TOTAL OUT =         178.3047

            IN - OUT =          -1.5875              IN - OUT =       1.0956E-04

 PERCENT DISCREPANCY =          -0.00     PERCENT DISCREPANCY =           0.00




         TIME SUMMARY AT END OF TIME STEP    7 IN STRESS PERIOD   40
                    SECONDS     MINUTES      HOURS       DAYS        YEARS
                    -----------------------------------------------------------
   TIME STEP LENGTH 2.59200E+05  4320.0      72.000      3.0000     8.21355E-03
 STRESS PERIOD TIME 1.81440E+06  30240.      504.00      21.000     5.74949E-02
         TOTAL TIME 1.00397E+08 1.67328E+06  27888.      1162.0      3.1814    
 UBDSV1 SAVING           STO-SS ON UNIT   1016 AT TIME STEP      8, STRESS PERIOD     40
 UBDSV1 SAVING           STO-SY ON UNIT   1016 AT TIME STEP      8, STRESS PERIOD     40
 UBDSV1 SAVING     FLOW-JA-FACE ON UNIT   1016 AT TIME STEP      8, STRESS PERIOD     40
 UBDSV06 SAVING              RCH IN MODEL TEST_TRANS       PACKAGE TEST_TRANS      CONNECTED TO MODEL TEST_TRANS       PACKAGE RCHA             ON UNIT   1016 AT TIME STEP      8, STRESS PERIOD     40
 UBDSV06 SAVING              CHD IN MODEL TEST_TRANS       PACKAGE TEST_TRANS      CONNECTED TO MODEL TEST_TRANS       PACKAGE CHD              ON UNIT   1016 AT TIME STEP      8, STRESS PERIOD     40

 HEAD WILL BE SAVED ON UNIT 1017 AT END OF TIME STEP    8, STRESS PERIOD   40


  VOLUME BUDGET FOR ENTIRE MODEL AT END OF TIME STEP    8, STRESS PERIOD  40
  ---------------------------------------------------------------------------------------------------

     CUMULATIVE VOLUME      L**3       RATES FOR THIS TIME STEP      L**3/T          PACKAGE NAME    
     ------------------                 ------------------------                     ----------------

           IN:                                      IN:
           ---                                      ---
              STO-SS =          50.1701                STO-SS =       5.6059E-02     STORAGE         
              STO-SY =       32061.9020                STO-SY =          34.3316     STORAGE         
                 RCH =      197811.8618                   RCH =         143.0141     RCHA            
                 CHD =         227.2620                   CHD =           0.0000     CHD             

            TOTAL IN =      230151.1960              TOTAL IN =         177.4017

          OUT:                                     OUT:
          ----                                     ----
              STO-SS =          46.7790                STO-SS =       2.6570E-03     STORAGE         
              STO-SY =       30119.5755                STO-SY =           1.8455     STORAGE         
                 RCH =           0.0000                   RCH =           0.0000     RCHA            
                 CHD =      199986.4269                   CHD =         175.5529     CHD             

           TOTAL OUT =      230152.7815             TOTAL OUT =         177.4011

            IN - OUT =          -1.5855              IN - OUT =       6.6537E-04

 PERCENT DISCREPANCY =          -0.00     PERCENT DISCREPANCY =           0.00




         TIME SUMMARY AT END OF TIME STEP    8 IN STRESS PERIOD   40
                    SECONDS     MINUTES      HOURS       DAYS        YEARS
                    -----------------------------------------------------------
   TIME STEP LENGTH 2.59200E+05  4320.0      72.000      3.0000     8.21355E-03
 STRESS PERIOD TIME 2.07360E+06  34560.      576.00      24.000     6.57084E-02
         TOTAL TIME 1.00656E+08 1.67760E+06  27960.      1165.0      3.1896    
 UBDSV1 SAVING           STO-SS ON UNIT   1016 AT TIME STEP      9, STRESS PERIOD     40
 UBDSV1 SAVING           STO-SY ON UNIT   1016 AT TIME STEP      9, STRESS PERIOD     40
 UBDSV1 SAVING     FLOW-JA-FACE ON UNIT   1016 AT TIME STEP      9, STRESS PERIOD     40
 UBDSV06 SAVING              RCH IN MODEL TEST_TRANS       PACKAGE TEST_TRANS      CONNECTED TO MODEL TEST_TRANS       PACKAGE RCHA             ON UNIT   1016 AT TIME STEP      9, STRESS PERIOD     40
 UBDSV06 SAVING              CHD IN MODEL TEST_TRANS       PACKAGE TEST_TRANS      CONNECTED TO MODEL TEST_TRANS       PACKAGE CHD              ON UNIT   1016 AT TIME STEP      9, STRESS PERIOD     40

 HEAD WILL BE SAVED ON UNIT 1017 AT END OF TIME STEP    9, STRESS PERIOD   40


  VOLUME BUDGET FOR ENTIRE MODEL AT END OF TIME STEP    9, STRESS PERIOD  40
  ---------------------------------------------------------------------------------------------------

     CUMULATIVE VOLUME      L**3       RATES FOR THIS TIME STEP      L**3/T          PACKAGE NAME    
     ------------------                 ------------------------                     ----------------

           IN:                                      IN:
           ---                                      ---
              STO-SS =          50.3349                STO-SS =       5.4961E-02     STORAGE         
              STO-SY =       32163.0108                STO-SY =          33.7029     STORAGE         
                 RCH =      198240.9041                   RCH =         143.0141     RCHA            
                 CHD =         227.2620                   CHD =           0.0000     CHD             

            TOTAL IN =      230681.5118              TOTAL IN =         176.7719

          OUT:                                     OUT:
          ----                                     ----
              STO-SS =          46.7826                STO-SS =       1.1918E-03     STORAGE         
              STO-SY =       30122.0739                STO-SY =           0.8328     STORAGE         
                 RCH =           0.0000                   RCH =           0.0000     RCHA            
                 CHD =      200514.2376                   CHD =         175.9369     CHD             

           TOTAL OUT =      230683.0941             TOTAL OUT =         176.7709

            IN - OUT =          -1.5823              IN - OUT =       1.0684E-03

 PERCENT DISCREPANCY =          -0.00     PERCENT DISCREPANCY =           0.00




         TIME SUMMARY AT END OF TIME STEP    9 IN STRESS PERIOD   40
                    SECONDS     MINUTES      HOURS       DAYS        YEARS
                    -----------------------------------------------------------
   TIME STEP LENGTH 2.59200E+05  4320.0      72.000      3.0000     8.21355E-03
 STRESS PERIOD TIME 2.33280E+06  38880.      648.00      27.000     7.39220E-02
         TOTAL TIME 1.00915E+08 1.68192E+06  28032.      1168.0      3.1978    
 UBDSV1 SAVING           STO-SS ON UNIT   1016 AT TIME STEP     10, STRESS PERIOD     40
 UBDSV1 SAVING           STO-SY ON UNIT   1016 AT TIME STEP     10, STRESS PERIOD     40
 UBDSV1 SAVING     FLOW-JA-FACE ON UNIT   1016 AT TIME STEP     10, STRESS PERIOD     40
 UBDSV06 SAVING              RCH IN MODEL TEST_TRANS       PACKAGE TEST_TRANS      CONNECTED TO MODEL TEST_TRANS       PACKAGE RCHA             ON UNIT   1016 AT TIME STEP     10, STRESS PERIOD     40
 UBDSV06 SAVING              CHD IN MODEL TEST_TRANS       PACKAGE TEST_TRANS      CONNECTED TO MODEL TEST_TRANS       PACKAGE CHD              ON UNIT   1016 AT TIME STEP     10, STRESS PERIOD     40

 HEAD WILL BE SAVED ON UNIT 1017 AT END OF TIME STEP   10, STRESS PERIOD   40


  VOLUME BUDGET FOR ENTIRE MODEL AT END OF TIME STEP   10, STRESS PERIOD  40
  ---------------------------------------------------------------------------------------------------

     CUMULATIVE VOLUME      L**3       RATES FOR THIS TIME STEP      L**3/T          PACKAGE NAME    
     ------------------                 ------------------------                     ----------------

           IN:                                      IN:
           ---                                      ---
              STO-SS =          50.4977                STO-SS =       5.4237E-02     STORAGE         
              STO-SY =       32262.9558                STO-SY =          33.3150     STORAGE         
                 RCH =      198669.9463                   RCH =         143.0141     RCHA            
                 CHD =         227.2620                   CHD =           0.0000     CHD             

            TOTAL IN =      231210.6618              TOTAL IN =         176.3833

          OUT:                                     OUT:
          ----                                     ----
              STO-SS =          46.7837                STO-SS =       3.6771E-04     STORAGE         
              STO-SY =       30122.8519                STO-SY =           0.2593     STORAGE         
                 RCH =           0.0000                   RCH =           0.0000     RCHA            
                 CHD =      201042.5944                   CHD =         176.1189     CHD             

           TOTAL OUT =      231212.2300             TOTAL OUT =         176.3786

            IN - OUT =          -1.5682              IN - OUT =       4.6891E-03

 PERCENT DISCREPANCY =          -0.00     PERCENT DISCREPANCY =           0.00




         TIME SUMMARY AT END OF TIME STEP   10 IN STRESS PERIOD   40
                    SECONDS     MINUTES      HOURS       DAYS        YEARS
                    -----------------------------------------------------------
   TIME STEP LENGTH 2.59200E+05  4320.0      72.000      3.0000     8.21355E-03
 STRESS PERIOD TIME 2.59200E+06  43200.      720.00      30.000     8.21355E-02
         TOTAL TIME 1.01174E+08 1.68624E+06  28104.      1171.0      3.2060    

 OUTPUT CONTROL FOR STRESS PERIOD 41 IS REPEATED USING SETTINGS FROM A PREVIOUS STRESS PERIOD.


 STRESS PERIOD 41 IS TRANSIENT


                 RECHARGE =  0.1232880E-02
 UBDSV1 SAVING           STO-SS ON UNIT   1016 AT TIME STEP      1, STRESS PERIOD     41
 UBDSV1 SAVING           STO-SY ON UNIT   1016 AT TIME STEP      1, STRESS PERIOD     41
 UBDSV1 SAVING     FLOW-JA-FACE ON UNIT   1016 AT TIME STEP      1, STRESS PERIOD     41
 UBDSV06 SAVING              RCH IN MODEL TEST_TRANS       PACKAGE TEST_TRANS      CONNECTED TO MODEL TEST_TRANS       PACKAGE RCHA             ON UNIT   1016 AT TIME STEP      1, STRESS PERIOD     41
 UBDSV06 SAVING              CHD IN MODEL TEST_TRANS       PACKAGE TEST_TRANS      CONNECTED TO MODEL TEST_TRANS       PACKAGE CHD              ON UNIT   1016 AT TIME STEP      1, STRESS PERIOD     41

 HEAD WILL BE SAVED ON UNIT 1017 AT END OF TIME STEP    1, STRESS PERIOD   41


  VOLUME BUDGET FOR ENTIRE MODEL AT END OF TIME STEP    1, STRESS PERIOD  41
  ---------------------------------------------------------------------------------------------------

     CUMULATIVE VOLUME      L**3       RATES FOR THIS TIME STEP      L**3/T          PACKAGE NAME    
     ------------------                 ------------------------                     ----------------

           IN:                                      IN:
           ---                                      ---
              STO-SS =          50.7824                STO-SS =       9.4926E-02     STORAGE         
              STO-SY =       32438.5768                STO-SY =          58.5403     STORAGE         
                 RCH =      198991.7280                   RCH =         107.2606     RCHA            
                 CHD =         227.2620                   CHD =           0.0000     CHD             

            TOTAL IN =      231708.3493              TOTAL IN =         165.8958

          OUT:                                     OUT:
          ----                                     ----
              STO-SS =          46.9605                STO-SS =       5.8930E-02     STORAGE         
              STO-SY =       30248.3706                STO-SY =          41.8396     STORAGE         
                 RCH =           0.0000                   RCH =           0.0000     RCHA            
                 CHD =      201414.5803                   CHD =         123.9953     CHD             

           TOTAL OUT =      231709.9114             TOTAL OUT =         165.8938

            IN - OUT =          -1.5621              IN - OUT =       2.0267E-03

 PERCENT DISCREPANCY =          -0.00     PERCENT DISCREPANCY =           0.00




         TIME SUMMARY AT END OF TIME STEP    1 IN STRESS PERIOD   41
                    SECONDS     MINUTES      HOURS       DAYS        YEARS
                    -----------------------------------------------------------
   TIME STEP LENGTH 2.59200E+05  4320.0      72.000      3.0000     8.21355E-03
 STRESS PERIOD TIME 2.59200E+05  4320.0      72.000      3.0000     8.21355E-03
         TOTAL TIME 1.01434E+08 1.69056E+06  28176.      1174.0      3.2142    
 UBDSV1 SAVING           STO-SS ON UNIT   1016 AT TIME STEP      2, STRESS PERIOD     41
 UBDSV1 SAVING           STO-SY ON UNIT   1016 AT TIME STEP      2, STRESS PERIOD     41
 UBDSV1 SAVING     FLOW-JA-FACE ON UNIT   1016 AT TIME STEP      2, STRESS PERIOD     41
 UBDSV06 SAVING              RCH IN MODEL TEST_TRANS       PACKAGE TEST_TRANS      CONNECTED TO MODEL TEST_TRANS       PACKAGE RCHA             ON UNIT   1016 AT TIME STEP      2, STRESS PERIOD     41
 UBDSV06 SAVING              CHD IN MODEL TEST_TRANS       PACKAGE TEST_TRANS      CONNECTED TO MODEL TEST_TRANS       PACKAGE CHD              ON UNIT   1016 AT TIME STEP      2, STRESS PERIOD     41

 HEAD WILL BE SAVED ON UNIT 1017 AT END OF TIME STEP    2, STRESS PERIOD   41


  VOLUME BUDGET FOR ENTIRE MODEL AT END OF TIME STEP    2, STRESS PERIOD  41
  ---------------------------------------------------------------------------------------------------

     CUMULATIVE VOLUME      L**3       RATES FOR THIS TIME STEP      L**3/T          PACKAGE NAME    
     ------------------                 ------------------------                     ----------------

           IN:                                      IN:
           ---                                      ---
              STO-SS =          51.0511                STO-SS =       8.9562E-02     STORAGE         
              STO-SY =       32604.0740                STO-SY =          55.1657     STORAGE         
                 RCH =      199313.5097                   RCH =         107.2606     RCHA            
                 CHD =         227.2620                   CHD =           0.0000     CHD             

            TOTAL IN =      232195.8968              TOTAL IN =         162.5159

          OUT:                                     OUT:
          ----                                     ----
              STO-SS =          47.0489                STO-SS =       2.9465E-02     STORAGE         
              STO-SY =       30310.2456                STO-SY =          20.6250     STORAGE         
                 RCH =           0.0000                   RCH =           0.0000     RCHA            
                 CHD =      201840.1504                   CHD =         141.8567     CHD             

           TOTAL OUT =      232197.4449             TOTAL OUT =         162.5112

            IN - OUT =          -1.5480              IN - OUT =       4.6979E-03

 PERCENT DISCREPANCY =          -0.00     PERCENT DISCREPANCY =           0.00




         TIME SUMMARY AT END OF TIME STEP    2 IN STRESS PERIOD   41
                    SECONDS     MINUTES      HOURS       DAYS        YEARS
                    -----------------------------------------------------------
   TIME STEP LENGTH 2.59200E+05  4320.0      72.000      3.0000     8.21355E-03
 STRESS PERIOD TIME 5.18400E+05  8640.0      144.00      6.0000     1.64271E-02
         TOTAL TIME 1.01693E+08 1.69488E+06  28248.      1177.0      3.2225    
 UBDSV1 SAVING           STO-SS ON UNIT   1016 AT TIME STEP      3, STRESS PERIOD     41
 UBDSV1 SAVING           STO-SY ON UNIT   1016 AT TIME STEP      3, STRESS PERIOD     41
 UBDSV1 SAVING     FLOW-JA-FACE ON UNIT   1016 AT TIME STEP      3, STRESS PERIOD     41
 UBDSV06 SAVING              RCH IN MODEL TEST_TRANS       PACKAGE TEST_TRANS      CONNECTED TO MODEL TEST_TRANS       PACKAGE RCHA             ON UNIT   1016 AT TIME STEP      3, STRESS PERIOD     41
 UBDSV06 SAVING              CHD IN MODEL TEST_TRANS       PACKAGE TEST_TRANS      CONNECTED TO MODEL TEST_TRANS       PACKAGE CHD              ON UNIT   1016 AT TIME STEP      3, STRESS PERIOD     41

 HEAD WILL BE SAVED ON UNIT 1017 AT END OF TIME STEP    3, STRESS PERIOD   41


  VOLUME BUDGET FOR ENTIRE MODEL AT END OF TIME STEP    3, STRESS PERIOD  41
  ---------------------------------------------------------------------------------------------------

     CUMULATIVE VOLUME      L**3       RATES FOR THIS TIME STEP      L**3/T          PACKAGE NAME    
     ------------------                 ------------------------                     ----------------

           IN:                                      IN:
           ---                                      ---
              STO-SS =          51.3073                STO-SS =       8.5391E-02     STORAGE         
              STO-SY =       32761.8146                STO-SY =          52.5802     STORAGE         
                 RCH =      199635.2913                   RCH =         107.2606     RCHA            
                 CHD =         227.2620                   CHD =           0.0000     CHD             

            TOTAL IN =      232675.6753              TOTAL IN =         159.9262

          OUT:                                     OUT:
          ----                                     ----
              STO-SS =          47.0984                STO-SS =       1.6500E-02     STORAGE         
              STO-SY =       30344.6467                STO-SY =          11.4670     STORAGE         
                 RCH =           0.0000                   RCH =           0.0000     RCHA            
                 CHD =      202285.4741                   CHD =         148.4413     CHD             

           TOTAL OUT =      232677.2192             TOTAL OUT =         159.9248

            IN - OUT =          -1.5439              IN - OUT =       1.3737E-03

 PERCENT DISCREPANCY =          -0.00     PERCENT DISCREPANCY =           0.00




         TIME SUMMARY AT END OF TIME STEP    3 IN STRESS PERIOD   41
                    SECONDS     MINUTES      HOURS       DAYS        YEARS
                    -----------------------------------------------------------
   TIME STEP LENGTH 2.59200E+05  4320.0      72.000      3.0000     8.21355E-03
 STRESS PERIOD TIME 7.77600E+05  12960.      216.00      9.0000     2.46407E-02
         TOTAL TIME 1.01952E+08 1.69920E+06  28320.      1180.0      3.2307    
 UBDSV1 SAVING           STO-SS ON UNIT   1016 AT TIME STEP      4, STRESS PERIOD     41
 UBDSV1 SAVING           STO-SY ON UNIT   1016 AT TIME STEP      4, STRESS PERIOD     41
 UBDSV1 SAVING     FLOW-JA-FACE ON UNIT   1016 AT TIME STEP      4, STRESS PERIOD     41
 UBDSV06 SAVING              RCH IN MODEL TEST_TRANS       PACKAGE TEST_TRANS      CONNECTED TO MODEL TEST_TRANS       PACKAGE RCHA             ON UNIT   1016 AT TIME STEP      4, STRESS PERIOD     41
 UBDSV06 SAVING              CHD IN MODEL TEST_TRANS       PACKAGE TEST_TRANS      CONNECTED TO MODEL TEST_TRANS       PACKAGE CHD              ON UNIT   1016 AT TIME STEP      4, STRESS PERIOD     41

 HEAD WILL BE SAVED ON UNIT 1017 AT END OF TIME STEP    4, STRESS PERIOD   41


  VOLUME BUDGET FOR ENTIRE MODEL AT END OF TIME STEP    4, STRESS PERIOD  41
  ---------------------------------------------------------------------------------------------------

     CUMULATIVE VOLUME      L**3       RATES FOR THIS TIME STEP      L**3/T          PACKAGE NAME    
     ------------------                 ------------------------                     ----------------

           IN:                                      IN:
           ---                                      ---
              STO-SS =          51.5538                STO-SS =       8.2159E-02     STORAGE         
              STO-SY =       32913.6276                STO-SY =          50.6043     STORAGE         
                 RCH =      199957.0730                   RCH =         107.2606     RCHA            
                 CHD =         227.2620                   CHD =           0.0000     CHD             

            TOTAL IN =      233149.5165              TOTAL IN =         157.9470

          OUT:                                     OUT:
          ----                                     ----
              STO-SS =          47.1264                STO-SS =       9.3195E-03     STORAGE         
              STO-SY =       30364.0200                STO-SY =           6.4578     STORAGE         
                 RCH =           0.0000                   RCH =           0.0000     RCHA            
                 CHD =      202739.9124                   CHD =         151.4794     CHD             

           TOTAL OUT =      233151.0588             TOTAL OUT =         157.9465

            IN - OUT =          -1.5423              IN - OUT =       5.3938E-04

 PERCENT DISCREPANCY =          -0.00     PERCENT DISCREPANCY =           0.00




         TIME SUMMARY AT END OF TIME STEP    4 IN STRESS PERIOD   41
                    SECONDS     MINUTES      HOURS       DAYS        YEARS
                    -----------------------------------------------------------
   TIME STEP LENGTH 2.59200E+05  4320.0      72.000      3.0000     8.21355E-03
 STRESS PERIOD TIME 1.03680E+06  17280.      288.00      12.000     3.28542E-02
         TOTAL TIME 1.02211E+08 1.70352E+06  28392.      1183.0      3.2389    
 UBDSV1 SAVING           STO-SS ON UNIT   1016 AT TIME STEP      5, STRESS PERIOD     41
 UBDSV1 SAVING           STO-SY ON UNIT   1016 AT TIME STEP      5, STRESS PERIOD     41
 UBDSV1 SAVING     FLOW-JA-FACE ON UNIT   1016 AT TIME STEP      5, STRESS PERIOD     41
 UBDSV06 SAVING              RCH IN MODEL TEST_TRANS       PACKAGE TEST_TRANS      CONNECTED TO MODEL TEST_TRANS       PACKAGE RCHA             ON UNIT   1016 AT TIME STEP      5, STRESS PERIOD     41
 UBDSV06 SAVING              CHD IN MODEL TEST_TRANS       PACKAGE TEST_TRANS      CONNECTED TO MODEL TEST_TRANS       PACKAGE CHD              ON UNIT   1016 AT TIME STEP      5, STRESS PERIOD     41

 HEAD WILL BE SAVED ON UNIT 1017 AT END OF TIME STEP    5, STRESS PERIOD   41


  VOLUME BUDGET FOR ENTIRE MODEL AT END OF TIME STEP    5, STRESS PERIOD  41
  ---------------------------------------------------------------------------------------------------

     CUMULATIVE VOLUME      L**3       RATES FOR THIS TIME STEP      L**3/T          PACKAGE NAME    
     ------------------                 ------------------------                     ----------------

           IN:                                      IN:
           ---                                      ---
              STO-SS =          51.7930                STO-SS =       7.9742E-02     STORAGE         
              STO-SY =       33061.0938                STO-SY =          49.1554     STORAGE         
                 RCH =      200278.8547                   RCH =         107.2606     RCHA            
                 CHD =         227.2620                   CHD =           0.0000     CHD             

            TOTAL IN =      233619.0036              TOTAL IN =         156.4957

          OUT:                                     OUT:
          ----                                     ----
              STO-SS =          47.1413                STO-SS =       4.9870E-03     STORAGE         
              STO-SY =       30374.3849                STO-SY =           3.4550     STORAGE         
                 RCH =           0.0000                   RCH =           0.0000     RCHA            
                 CHD =      203199.0163                   CHD =         153.0346     CHD             

           TOTAL OUT =      233620.5425             TOTAL OUT =         156.4946

            IN - OUT =          -1.5389              IN - OUT =       1.1384E-03

 PERCENT DISCREPANCY =          -0.00     PERCENT DISCREPANCY =           0.00




         TIME SUMMARY AT END OF TIME STEP    5 IN STRESS PERIOD   41
                    SECONDS     MINUTES      HOURS       DAYS        YEARS
                    -----------------------------------------------------------
   TIME STEP LENGTH 2.59200E+05  4320.0      72.000      3.0000     8.21355E-03
 STRESS PERIOD TIME 1.29600E+06  21600.      360.00      15.000     4.10678E-02
         TOTAL TIME 1.02470E+08 1.70784E+06  28464.      1186.0      3.2471    
 UBDSV1 SAVING           STO-SS ON UNIT   1016 AT TIME STEP      6, STRESS PERIOD     41
 UBDSV1 SAVING           STO-SY ON UNIT   1016 AT TIME STEP      6, STRESS PERIOD     41
 UBDSV1 SAVING     FLOW-JA-FACE ON UNIT   1016 AT TIME STEP      6, STRESS PERIOD     41
 UBDSV06 SAVING              RCH IN MODEL TEST_TRANS       PACKAGE TEST_TRANS      CONNECTED TO MODEL TEST_TRANS       PACKAGE RCHA             ON UNIT   1016 AT TIME STEP      6, STRESS PERIOD     41
 UBDSV06 SAVING              CHD IN MODEL TEST_TRANS       PACKAGE TEST_TRANS      CONNECTED TO MODEL TEST_TRANS       PACKAGE CHD              ON UNIT   1016 AT TIME STEP      6, STRESS PERIOD     41

 HEAD WILL BE SAVED ON UNIT 1017 AT END OF TIME STEP    6, STRESS PERIOD   41


  VOLUME BUDGET FOR ENTIRE MODEL AT END OF TIME STEP    6, STRESS PERIOD  41
  ---------------------------------------------------------------------------------------------------

     CUMULATIVE VOLUME      L**3       RATES FOR THIS TIME STEP      L**3/T          PACKAGE NAME    
     ------------------                 ------------------------                     ----------------

           IN:                                      IN:
           ---                                      ---
              STO-SS =          52.0266                STO-SS =       7.7884E-02     STORAGE         
              STO-SY =       33205.2882                STO-SY =          48.0648     STORAGE         
                 RCH =      200600.6364                   RCH =         107.2606     RCHA            
                 CHD =         227.2620                   CHD =           0.0000     CHD             

            TOTAL IN =      234085.2132              TOTAL IN =         155.4032

          OUT:                                     OUT:
          ----                                     ----
              STO-SS =          47.1481                STO-SS =       2.2534E-03     STORAGE         
              STO-SY =       30379.0841                STO-SY =           1.5664     STORAGE         
                 RCH =           0.0000                   RCH =           0.0000     RCHA            
                 CHD =      203660.5153                   CHD =         153.8330     CHD             

           TOTAL OUT =      234086.7474             TOTAL OUT =         155.4016

            IN - OUT =          -1.5342              IN - OUT =       1.5775E-03

 PERCENT DISCREPANCY =          -0.00     PERCENT DISCREPANCY =           0.00




         TIME SUMMARY AT END OF TIME STEP    6 IN STRESS PERIOD   41
                    SECONDS     MINUTES      HOURS       DAYS        YEARS
                    -----------------------------------------------------------
   TIME STEP LENGTH 2.59200E+05  4320.0      72.000      3.0000     8.21355E-03
 STRESS PERIOD TIME 1.55520E+06  25920.      432.00      18.000     4.92813E-02
         TOTAL TIME 1.02730E+08 1.71216E+06  28536.      1189.0      3.2553    
 UBDSV1 SAVING           STO-SS ON UNIT   1016 AT TIME STEP      7, STRESS PERIOD     41
 UBDSV1 SAVING           STO-SY ON UNIT   1016 AT TIME STEP      7, STRESS PERIOD     41
 UBDSV1 SAVING     FLOW-JA-FACE ON UNIT   1016 AT TIME STEP      7, STRESS PERIOD     41
 UBDSV06 SAVING              RCH IN MODEL TEST_TRANS       PACKAGE TEST_TRANS      CONNECTED TO MODEL TEST_TRANS       PACKAGE RCHA             ON UNIT   1016 AT TIME STEP      7, STRESS PERIOD     41
 UBDSV06 SAVING              CHD IN MODEL TEST_TRANS       PACKAGE TEST_TRANS      CONNECTED TO MODEL TEST_TRANS       PACKAGE CHD              ON UNIT   1016 AT TIME STEP      7, STRESS PERIOD     41

 HEAD WILL BE SAVED ON UNIT 1017 AT END OF TIME STEP    7, STRESS PERIOD   41


  VOLUME BUDGET FOR ENTIRE MODEL AT END OF TIME STEP    7, STRESS PERIOD  41
  ---------------------------------------------------------------------------------------------------

     CUMULATIVE VOLUME      L**3       RATES FOR THIS TIME STEP      L**3/T          PACKAGE NAME    
     ------------------                 ------------------------                     ----------------

           IN:                                      IN:
           ---                                      ---
              STO-SS =          52.2565                STO-SS =       7.6631E-02     STORAGE         
              STO-SY =       33347.3849                STO-SY =          47.3656     STORAGE         
                 RCH =      200922.4181                   RCH =         107.2606     RCHA            
                 CHD =         227.2620                   CHD =           0.0000     CHD             

            TOTAL IN =      234549.3215              TOTAL IN =         154.7028

          OUT:                                     OUT:
          ----                                     ----
              STO-SS =          47.1503                STO-SS =       7.2754E-04     STORAGE         
              STO-SY =       30380.6110                STO-SY =           0.5090     STORAGE         
                 RCH =           0.0000                   RCH =           0.0000     RCHA            
                 CHD =      204123.0888                   CHD =         154.1912     CHD             

           TOTAL OUT =      234550.8501             TOTAL OUT =         154.7009

            IN - OUT =          -1.5285              IN - OUT =       1.8769E-03

 PERCENT DISCREPANCY =          -0.00     PERCENT DISCREPANCY =           0.00




         TIME SUMMARY AT END OF TIME STEP    7 IN STRESS PERIOD   41
                    SECONDS     MINUTES      HOURS       DAYS        YEARS
                    -----------------------------------------------------------
   TIME STEP LENGTH 2.59200E+05  4320.0      72.000      3.0000     8.21355E-03
 STRESS PERIOD TIME 1.81440E+06  30240.      504.00      21.000     5.74949E-02
         TOTAL TIME 1.02989E+08 1.71648E+06  28608.      1192.0      3.2635    
 UBDSV1 SAVING           STO-SS ON UNIT   1016 AT TIME STEP      8, STRESS PERIOD     41
 UBDSV1 SAVING           STO-SY ON UNIT   1016 AT TIME STEP      8, STRESS PERIOD     41
 UBDSV1 SAVING     FLOW-JA-FACE ON UNIT   1016 AT TIME STEP      8, STRESS PERIOD     41
 UBDSV06 SAVING              RCH IN MODEL TEST_TRANS       PACKAGE TEST_TRANS      CONNECTED TO MODEL TEST_TRANS       PACKAGE RCHA             ON UNIT   1016 AT TIME STEP      8, STRESS PERIOD     41
 UBDSV06 SAVING              CHD IN MODEL TEST_TRANS       PACKAGE TEST_TRANS      CONNECTED TO MODEL TEST_TRANS       PACKAGE CHD              ON UNIT   1016 AT TIME STEP      8, STRESS PERIOD     41

 HEAD WILL BE SAVED ON UNIT 1017 AT END OF TIME STEP    8, STRESS PERIOD   41


  VOLUME BUDGET FOR ENTIRE MODEL AT END OF TIME STEP    8, STRESS PERIOD  41
  ---------------------------------------------------------------------------------------------------

     CUMULATIVE VOLUME      L**3       RATES FOR THIS TIME STEP      L**3/T          PACKAGE NAME    
     ------------------                 ------------------------                     ----------------

           IN:                                      IN:
           ---                                      ---
              STO-SS =          52.4841                STO-SS =       7.5858E-02     STORAGE         
              STO-SY =       33488.3281                STO-SY =          46.9811     STORAGE         
                 RCH =      201244.1997                   RCH =         107.2606     RCHA            
                 CHD =         227.2620                   CHD =           0.0000     CHD             

            TOTAL IN =      235012.2740              TOTAL IN =         154.3175

          OUT:                                     OUT:
          ----                                     ----
              STO-SS =          47.1505                STO-SS =       6.3504E-05     STORAGE         
              STO-SY =       30380.7461                STO-SY =       4.5034E-02     STORAGE         
                 RCH =           0.0000                   RCH =           0.0000     RCHA            
                 CHD =      204585.8998                   CHD =         154.2703     CHD             

           TOTAL OUT =      235013.7963             TOTAL OUT =         154.3154

            IN - OUT =          -1.5223              IN - OUT =       2.0611E-03

 PERCENT DISCREPANCY =          -0.00     PERCENT DISCREPANCY =           0.00




         TIME SUMMARY AT END OF TIME STEP    8 IN STRESS PERIOD   41
                    SECONDS     MINUTES      HOURS       DAYS        YEARS
                    -----------------------------------------------------------
   TIME STEP LENGTH 2.59200E+05  4320.0      72.000      3.0000     8.21355E-03
 STRESS PERIOD TIME 2.07360E+06  34560.      576.00      24.000     6.57084E-02
         TOTAL TIME 1.03248E+08 1.72080E+06  28680.      1195.0      3.2717    
 UBDSV1 SAVING           STO-SS ON UNIT   1016 AT TIME STEP      9, STRESS PERIOD     41
 UBDSV1 SAVING           STO-SY ON UNIT   1016 AT TIME STEP      9, STRESS PERIOD     41
 UBDSV1 SAVING     FLOW-JA-FACE ON UNIT   1016 AT TIME STEP      9, STRESS PERIOD     41
 UBDSV06 SAVING              RCH IN MODEL TEST_TRANS       PACKAGE TEST_TRANS      CONNECTED TO MODEL TEST_TRANS       PACKAGE RCHA             ON UNIT   1016 AT TIME STEP      9, STRESS PERIOD     41
 UBDSV06 SAVING              CHD IN MODEL TEST_TRANS       PACKAGE TEST_TRANS      CONNECTED TO MODEL TEST_TRANS       PACKAGE CHD              ON UNIT   1016 AT TIME STEP      9, STRESS PERIOD     41

 HEAD WILL BE SAVED ON UNIT 1017 AT END OF TIME STEP    9, STRESS PERIOD   41


  VOLUME BUDGET FOR ENTIRE MODEL AT END OF TIME STEP    9, STRESS PERIOD  41
  ---------------------------------------------------------------------------------------------------

     CUMULATIVE VOLUME      L**3       RATES FOR THIS TIME STEP      L**3/T          PACKAGE NAME    
     ------------------                 ------------------------                     ----------------

           IN:                                      IN:
           ---                                      ---
              STO-SS =          52.7104                STO-SS =       7.5430E-02     STORAGE         
              STO-SY =       33628.8124                STO-SY =          46.8281     STORAGE         
                 RCH =      201565.9814                   RCH =         107.2606     RCHA            
                 CHD =         227.2620                   CHD =           0.0000     CHD             

            TOTAL IN =      235474.7663              TOTAL IN =         154.1641

          OUT:                                     OUT:
          ----                                     ----
              STO-SS =          47.1505                STO-SS =           0.0000     STORAGE         
              STO-SY =       30380.7461                STO-SY =           0.0000     STORAGE         
                 RCH =           0.0000                   RCH =           0.0000     RCHA            
                 CHD =      205048.3855                   CHD =         154.1619     CHD             

           TOTAL OUT =      235476.2820             TOTAL OUT =         154.1619

            IN - OUT =          -1.5158              IN - OUT =       2.1892E-03

 PERCENT DISCREPANCY =          -0.00     PERCENT DISCREPANCY =           0.00




         TIME SUMMARY AT END OF TIME STEP    9 IN STRESS PERIOD   41
                    SECONDS     MINUTES      HOURS       DAYS        YEARS
                    -----------------------------------------------------------
   TIME STEP LENGTH 2.59200E+05  4320.0      72.000      3.0000     8.21355E-03
 STRESS PERIOD TIME 2.33280E+06  38880.      648.00      27.000     7.39220E-02
         TOTAL TIME 1.03507E+08 1.72512E+06  28752.      1198.0      3.2799    
 UBDSV1 SAVING           STO-SS ON UNIT   1016 AT TIME STEP     10, STRESS PERIOD     41
 UBDSV1 SAVING           STO-SY ON UNIT   1016 AT TIME STEP     10, STRESS PERIOD     41
 UBDSV1 SAVING     FLOW-JA-FACE ON UNIT   1016 AT TIME STEP     10, STRESS PERIOD     41
 UBDSV06 SAVING              RCH IN MODEL TEST_TRANS       PACKAGE TEST_TRANS      CONNECTED TO MODEL TEST_TRANS       PACKAGE RCHA             ON UNIT   1016 AT TIME STEP     10, STRESS PERIOD     41
 UBDSV06 SAVING              CHD IN MODEL TEST_TRANS       PACKAGE TEST_TRANS      CONNECTED TO MODEL TEST_TRANS       PACKAGE CHD              ON UNIT   1016 AT TIME STEP     10, STRESS PERIOD     41

 HEAD WILL BE SAVED ON UNIT 1017 AT END OF TIME STEP   10, STRESS PERIOD   41


  VOLUME BUDGET FOR ENTIRE MODEL AT END OF TIME STEP   10, STRESS PERIOD  41
  ---------------------------------------------------------------------------------------------------

     CUMULATIVE VOLUME      L**3       RATES FOR THIS TIME STEP      L**3/T          PACKAGE NAME    
     ------------------                 ------------------------                     ----------------

           IN:                                      IN:
           ---                                      ---
              STO-SS =          52.9351                STO-SS =       7.4887E-02     STORAGE         
              STO-SY =       33768.5793                STO-SY =          46.5890     STORAGE         
                 RCH =      201887.7631                   RCH =         107.2606     RCHA            
                 CHD =         227.2620                   CHD =           0.0000     CHD             

            TOTAL IN =      235936.5395              TOTAL IN =         153.9244

          OUT:                                     OUT:
          ----                                     ----
              STO-SS =          47.1505                STO-SS =           0.0000     STORAGE         
              STO-SY =       30380.7461                STO-SY =           0.0000     STORAGE         
                 RCH =           0.0000                   RCH =           0.0000     RCHA            
                 CHD =      205510.1519                   CHD =         153.9221     CHD             

           TOTAL OUT =      235938.0485             TOTAL OUT =         153.9221

            IN - OUT =          -1.5089              IN - OUT =       2.2776E-03

 PERCENT DISCREPANCY =          -0.00     PERCENT DISCREPANCY =           0.00




         TIME SUMMARY AT END OF TIME STEP   10 IN STRESS PERIOD   41
                    SECONDS     MINUTES      HOURS       DAYS        YEARS
                    -----------------------------------------------------------
   TIME STEP LENGTH 2.59200E+05  4320.0      72.000      3.0000     8.21355E-03
 STRESS PERIOD TIME 2.59200E+06  43200.      720.00      30.000     8.21355E-02
         TOTAL TIME 1.03766E+08 1.72944E+06  28824.      1201.0      3.2882    

 OUTPUT CONTROL FOR STRESS PERIOD 42 IS REPEATED USING SETTINGS FROM A PREVIOUS STRESS PERIOD.


 STRESS PERIOD 42 IS TRANSIENT


                 RECHARGE =  0.8219178E-03
 UBDSV1 SAVING           STO-SS ON UNIT   1016 AT TIME STEP      1, STRESS PERIOD     42
 UBDSV1 SAVING           STO-SY ON UNIT   1016 AT TIME STEP      1, STRESS PERIOD     42
 UBDSV1 SAVING     FLOW-JA-FACE ON UNIT   1016 AT TIME STEP      1, STRESS PERIOD     42
 UBDSV06 SAVING              RCH IN MODEL TEST_TRANS       PACKAGE TEST_TRANS      CONNECTED TO MODEL TEST_TRANS       PACKAGE RCHA             ON UNIT   1016 AT TIME STEP      1, STRESS PERIOD     42
 UBDSV06 SAVING              CHD IN MODEL TEST_TRANS       PACKAGE TEST_TRANS      CONNECTED TO MODEL TEST_TRANS       PACKAGE CHD              ON UNIT   1016 AT TIME STEP      1, STRESS PERIOD     42

 HEAD WILL BE SAVED ON UNIT 1017 AT END OF TIME STEP    1, STRESS PERIOD   42


  VOLUME BUDGET FOR ENTIRE MODEL AT END OF TIME STEP    1, STRESS PERIOD  42
  ---------------------------------------------------------------------------------------------------

     CUMULATIVE VOLUME      L**3       RATES FOR THIS TIME STEP      L**3/T          PACKAGE NAME    
     ------------------                 ------------------------                     ----------------

           IN:                                      IN:
           ---                                      ---
              STO-SS =          53.2654                STO-SS =           0.1101     STORAGE         
              STO-SY =       33973.6885                STO-SY =          68.3697     STORAGE         
                 RCH =      202102.2836                   RCH =          71.5068     RCHA            
                 CHD =         227.2620                   CHD =           0.0000     CHD             

            TOTAL IN =      236356.4995              TOTAL IN =         139.9867

          OUT:                                     OUT:
          ----                                     ----
              STO-SS =          47.4552                STO-SS =           0.1016     STORAGE         
              STO-SY =       30594.6043                STO-SY =          71.2861     STORAGE         
                 RCH =           0.0000                   RCH =           0.0000     RCHA            
                 CHD =      205715.9441                   CHD =          68.5974     CHD             

           TOTAL OUT =      236358.0037             TOTAL OUT =         139.9851

            IN - OUT =          -1.5041              IN - OUT =       1.6095E-03

 PERCENT DISCREPANCY =          -0.00     PERCENT DISCREPANCY =           0.00




         TIME SUMMARY AT END OF TIME STEP    1 IN STRESS PERIOD   42
                    SECONDS     MINUTES      HOURS       DAYS        YEARS
                    -----------------------------------------------------------
   TIME STEP LENGTH 2.59200E+05  4320.0      72.000      3.0000     8.21355E-03
 STRESS PERIOD TIME 2.59200E+05  4320.0      72.000      3.0000     8.21355E-03
         TOTAL TIME 1.04026E+08 1.73376E+06  28896.      1204.0      3.2964    
 UBDSV1 SAVING           STO-SS ON UNIT   1016 AT TIME STEP      2, STRESS PERIOD     42
 UBDSV1 SAVING           STO-SY ON UNIT   1016 AT TIME STEP      2, STRESS PERIOD     42
 UBDSV1 SAVING     FLOW-JA-FACE ON UNIT   1016 AT TIME STEP      2, STRESS PERIOD     42
 UBDSV06 SAVING              RCH IN MODEL TEST_TRANS       PACKAGE TEST_TRANS      CONNECTED TO MODEL TEST_TRANS       PACKAGE RCHA             ON UNIT   1016 AT TIME STEP      2, STRESS PERIOD     42
 UBDSV06 SAVING              CHD IN MODEL TEST_TRANS       PACKAGE TEST_TRANS      CONNECTED TO MODEL TEST_TRANS       PACKAGE CHD              ON UNIT   1016 AT TIME STEP      2, STRESS PERIOD     42

 HEAD WILL BE SAVED ON UNIT 1017 AT END OF TIME STEP    2, STRESS PERIOD   42


  VOLUME BUDGET FOR ENTIRE MODEL AT END OF TIME STEP    2, STRESS PERIOD  42
  ---------------------------------------------------------------------------------------------------

     CUMULATIVE VOLUME      L**3       RATES FOR THIS TIME STEP      L**3/T          PACKAGE NAME    
     ------------------                 ------------------------                     ----------------

           IN:                                      IN:
           ---                                      ---
              STO-SS =          53.5735                STO-SS =           0.1027     STORAGE         
              STO-SY =       34164.7405                STO-SY =          63.6840     STORAGE         
                 RCH =      202316.8042                   RCH =          71.5068     RCHA            
                 CHD =         227.2620                   CHD =           0.0000     CHD             

            TOTAL IN =      236762.3802              TOTAL IN =         135.2936

          OUT:                                     OUT:
          ----                                     ----
              STO-SS =          47.6130                STO-SS =       5.2584E-02     STORAGE         
              STO-SY =       30703.7005                STO-SY =          36.3654     STORAGE         
                 RCH =           0.0000                   RCH =           0.0000     RCHA            
                 CHD =      206012.5617                   CHD =          98.8725     CHD             

           TOTAL OUT =      236763.8751             TOTAL OUT =         135.2905

            IN - OUT =          -1.4949              IN - OUT =       3.0675E-03

 PERCENT DISCREPANCY =          -0.00     PERCENT DISCREPANCY =           0.00




         TIME SUMMARY AT END OF TIME STEP    2 IN STRESS PERIOD   42
                    SECONDS     MINUTES      HOURS       DAYS        YEARS
                    -----------------------------------------------------------
   TIME STEP LENGTH 2.59200E+05  4320.0      72.000      3.0000     8.21355E-03
 STRESS PERIOD TIME 5.18400E+05  8640.0      144.00      6.0000     1.64271E-02
         TOTAL TIME 1.04285E+08 1.73808E+06  28968.      1207.0      3.3046    
 UBDSV1 SAVING           STO-SS ON UNIT   1016 AT TIME STEP      3, STRESS PERIOD     42
 UBDSV1 SAVING           STO-SY ON UNIT   1016 AT TIME STEP      3, STRESS PERIOD     42
 UBDSV1 SAVING     FLOW-JA-FACE ON UNIT   1016 AT TIME STEP      3, STRESS PERIOD     42
 UBDSV06 SAVING              RCH IN MODEL TEST_TRANS       PACKAGE TEST_TRANS      CONNECTED TO MODEL TEST_TRANS       PACKAGE RCHA             ON UNIT   1016 AT TIME STEP      3, STRESS PERIOD     42
 UBDSV06 SAVING              CHD IN MODEL TEST_TRANS       PACKAGE TEST_TRANS      CONNECTED TO MODEL TEST_TRANS       PACKAGE CHD              ON UNIT   1016 AT TIME STEP      3, STRESS PERIOD     42

 HEAD WILL BE SAVED ON UNIT 1017 AT END OF TIME STEP    3, STRESS PERIOD   42


  VOLUME BUDGET FOR ENTIRE MODEL AT END OF TIME STEP    3, STRESS PERIOD  42
  ---------------------------------------------------------------------------------------------------

     CUMULATIVE VOLUME      L**3       RATES FOR THIS TIME STEP      L**3/T          PACKAGE NAME    
     ------------------                 ------------------------                     ----------------

           IN:                                      IN:
           ---                                      ---
              STO-SS =          53.8642                STO-SS =       9.6900E-02     STORAGE         
              STO-SY =       34344.9337                STO-SY =          60.0644     STORAGE         
                 RCH =      202531.3247                   RCH =          71.5068     RCHA            
                 CHD =         227.2620                   CHD =           0.0000     CHD             

            TOTAL IN =      237157.3846              TOTAL IN =         131.6681

          OUT:                                     OUT:
          ----                                     ----
              STO-SS =          47.7072                STO-SS =       3.1416E-02     STORAGE         
              STO-SY =       30768.3984                STO-SY =          21.5660     STORAGE         
                 RCH =           0.0000                   RCH =           0.0000     RCHA            
                 CHD =      206342.7721                   CHD =         110.0701     CHD             

           TOTAL OUT =      237158.8777             TOTAL OUT =         131.6675

            IN - OUT =          -1.4931              IN - OUT =       6.0551E-04

 PERCENT DISCREPANCY =          -0.00     PERCENT DISCREPANCY =           0.00




         TIME SUMMARY AT END OF TIME STEP    3 IN STRESS PERIOD   42
                    SECONDS     MINUTES      HOURS       DAYS        YEARS
                    -----------------------------------------------------------
   TIME STEP LENGTH 2.59200E+05  4320.0      72.000      3.0000     8.21355E-03
 STRESS PERIOD TIME 7.77600E+05  12960.      216.00      9.0000     2.46407E-02
         TOTAL TIME 1.04544E+08 1.74240E+06  29040.      1210.0      3.3128    
 UBDSV1 SAVING           STO-SS ON UNIT   1016 AT TIME STEP      4, STRESS PERIOD     42
 UBDSV1 SAVING           STO-SY ON UNIT   1016 AT TIME STEP      4, STRESS PERIOD     42
 UBDSV1 SAVING     FLOW-JA-FACE ON UNIT   1016 AT TIME STEP      4, STRESS PERIOD     42
 UBDSV06 SAVING              RCH IN MODEL TEST_TRANS       PACKAGE TEST_TRANS      CONNECTED TO MODEL TEST_TRANS       PACKAGE RCHA             ON UNIT   1016 AT TIME STEP      4, STRESS PERIOD     42
 UBDSV06 SAVING              CHD IN MODEL TEST_TRANS       PACKAGE TEST_TRANS      CONNECTED TO MODEL TEST_TRANS       PACKAGE CHD              ON UNIT   1016 AT TIME STEP      4, STRESS PERIOD     42

 HEAD WILL BE SAVED ON UNIT 1017 AT END OF TIME STEP    4, STRESS PERIOD   42


  VOLUME BUDGET FOR ENTIRE MODEL AT END OF TIME STEP    4, STRESS PERIOD  42
  ---------------------------------------------------------------------------------------------------

     CUMULATIVE VOLUME      L**3       RATES FOR THIS TIME STEP      L**3/T          PACKAGE NAME    
     ------------------                 ------------------------                     ----------------

           IN:                                      IN:
           ---                                      ---
              STO-SS =          54.1415                STO-SS =       9.2432E-02     STORAGE         
              STO-SY =       34516.8571                STO-SY =          57.3078     STORAGE         
                 RCH =      202745.8453                   RCH =          71.5068     RCHA            
                 CHD =         227.2620                   CHD =           0.0000     CHD             

            TOTAL IN =      237544.1059              TOTAL IN =         128.9071

          OUT:                                     OUT:
          ----                                     ----
              STO-SS =          47.7663                STO-SS =       1.9698E-02     STORAGE         
              STO-SY =       30808.7968                STO-SY =          13.4661     STORAGE         
                 RCH =           0.0000                   RCH =           0.0000     RCHA            
                 CHD =      206689.0355                   CHD =         115.4211     CHD             

           TOTAL OUT =      237545.5985             TOTAL OUT =         128.9069

            IN - OUT =          -1.4927              IN - OUT =       1.4853E-04

 PERCENT DISCREPANCY =          -0.00     PERCENT DISCREPANCY =           0.00




         TIME SUMMARY AT END OF TIME STEP    4 IN STRESS PERIOD   42
                    SECONDS     MINUTES      HOURS       DAYS        YEARS
                    -----------------------------------------------------------
   TIME STEP LENGTH 2.59200E+05  4320.0      72.000      3.0000     8.21355E-03
 STRESS PERIOD TIME 1.03680E+06  17280.      288.00      12.000     3.28542E-02
         TOTAL TIME 1.04803E+08 1.74672E+06  29112.      1213.0      3.3210    
 UBDSV1 SAVING           STO-SS ON UNIT   1016 AT TIME STEP      5, STRESS PERIOD     42
 UBDSV1 SAVING           STO-SY ON UNIT   1016 AT TIME STEP      5, STRESS PERIOD     42
 UBDSV1 SAVING     FLOW-JA-FACE ON UNIT   1016 AT TIME STEP      5, STRESS PERIOD     42
 UBDSV06 SAVING              RCH IN MODEL TEST_TRANS       PACKAGE TEST_TRANS      CONNECTED TO MODEL TEST_TRANS       PACKAGE RCHA             ON UNIT   1016 AT TIME STEP      5, STRESS PERIOD     42
 UBDSV06 SAVING              CHD IN MODEL TEST_TRANS       PACKAGE TEST_TRANS      CONNECTED TO MODEL TEST_TRANS       PACKAGE CHD              ON UNIT   1016 AT TIME STEP      5, STRESS PERIOD     42

 HEAD WILL BE SAVED ON UNIT 1017 AT END OF TIME STEP    5, STRESS PERIOD   42


  VOLUME BUDGET FOR ENTIRE MODEL AT END OF TIME STEP    5, STRESS PERIOD  42
  ---------------------------------------------------------------------------------------------------

     CUMULATIVE VOLUME      L**3       RATES FOR THIS TIME STEP      L**3/T          PACKAGE NAME    
     ------------------                 ------------------------                     ----------------

           IN:                                      IN:
           ---                                      ---
              STO-SS =          54.4078                STO-SS =       8.8792E-02     STORAGE         
              STO-SY =       34682.1036                STO-SY =          55.0822     STORAGE         
                 RCH =      202960.3658                   RCH =          71.5068     RCHA            
                 CHD =         227.2620                   CHD =           0.0000     CHD             

            TOTAL IN =      237924.1393              TOTAL IN =         126.6778

          OUT:                                     OUT:
          ----                                     ----
              STO-SS =          47.8028                STO-SS =       1.2173E-02     STORAGE         
              STO-SY =       30833.7219                STO-SY =           8.3084     STORAGE         
                 RCH =           0.0000                   RCH =           0.0000     RCHA            
                 CHD =      207044.1075                   CHD =         118.3574     CHD             

           TOTAL OUT =      237925.6323             TOTAL OUT =         126.6779

            IN - OUT =          -1.4930              IN - OUT =      -1.2238E-04

 PERCENT DISCREPANCY =          -0.00     PERCENT DISCREPANCY =          -0.00




         TIME SUMMARY AT END OF TIME STEP    5 IN STRESS PERIOD   42
                    SECONDS     MINUTES      HOURS       DAYS        YEARS
                    -----------------------------------------------------------
   TIME STEP LENGTH 2.59200E+05  4320.0      72.000      3.0000     8.21355E-03
 STRESS PERIOD TIME 1.29600E+06  21600.      360.00      15.000     4.10678E-02
         TOTAL TIME 1.05062E+08 1.75104E+06  29184.      1216.0      3.3292    
 UBDSV1 SAVING           STO-SS ON UNIT   1016 AT TIME STEP      6, STRESS PERIOD     42
 UBDSV1 SAVING           STO-SY ON UNIT   1016 AT TIME STEP      6, STRESS PERIOD     42
 UBDSV1 SAVING     FLOW-JA-FACE ON UNIT   1016 AT TIME STEP      6, STRESS PERIOD     42
 UBDSV06 SAVING              RCH IN MODEL TEST_TRANS       PACKAGE TEST_TRANS      CONNECTED TO MODEL TEST_TRANS       PACKAGE RCHA             ON UNIT   1016 AT TIME STEP      6, STRESS PERIOD     42
 UBDSV06 SAVING              CHD IN MODEL TEST_TRANS       PACKAGE TEST_TRANS      CONNECTED TO MODEL TEST_TRANS       PACKAGE CHD              ON UNIT   1016 AT TIME STEP      6, STRESS PERIOD     42

 HEAD WILL BE SAVED ON UNIT 1017 AT END OF TIME STEP    6, STRESS PERIOD   42


  VOLUME BUDGET FOR ENTIRE MODEL AT END OF TIME STEP    6, STRESS PERIOD  42
  ---------------------------------------------------------------------------------------------------

     CUMULATIVE VOLUME      L**3       RATES FOR THIS TIME STEP      L**3/T          PACKAGE NAME    
     ------------------                 ------------------------                     ----------------

           IN:                                      IN:
           ---                                      ---
              STO-SS =          54.6658                STO-SS =       8.5975E-02     STORAGE         
              STO-SY =       34842.2524                STO-SY =          53.3829     STORAGE         
                 RCH =      203174.8864                   RCH =          71.5068     RCHA            
                 CHD =         227.2620                   CHD =           0.0000     CHD             

            TOTAL IN =      238299.0666              TOTAL IN =         124.9758

          OUT:                                     OUT:
          ----                                     ----
              STO-SS =          47.8244                STO-SS =       7.1811E-03     STORAGE         
              STO-SY =       30848.4269                STO-SY =           4.9017     STORAGE         
                 RCH =           0.0000                   RCH =           0.0000     RCHA            
                 CHD =      207404.3066                   CHD =         120.0664     CHD             

           TOTAL OUT =      238300.5579             TOTAL OUT =         124.9752

            IN - OUT =          -1.4914              IN - OUT =       5.5230E-04

 PERCENT DISCREPANCY =          -0.00     PERCENT DISCREPANCY =           0.00




         TIME SUMMARY AT END OF TIME STEP    6 IN STRESS PERIOD   42
                    SECONDS     MINUTES      HOURS       DAYS        YEARS
                    -----------------------------------------------------------
   TIME STEP LENGTH 2.59200E+05  4320.0      72.000      3.0000     8.21355E-03
 STRESS PERIOD TIME 1.55520E+06  25920.      432.00      18.000     4.92813E-02
         TOTAL TIME 1.05322E+08 1.75536E+06  29256.      1219.0      3.3374    
 UBDSV1 SAVING           STO-SS ON UNIT   1016 AT TIME STEP      7, STRESS PERIOD     42
 UBDSV1 SAVING           STO-SY ON UNIT   1016 AT TIME STEP      7, STRESS PERIOD     42
 UBDSV1 SAVING     FLOW-JA-FACE ON UNIT   1016 AT TIME STEP      7, STRESS PERIOD     42
 UBDSV06 SAVING              RCH IN MODEL TEST_TRANS       PACKAGE TEST_TRANS      CONNECTED TO MODEL TEST_TRANS       PACKAGE RCHA             ON UNIT   1016 AT TIME STEP      7, STRESS PERIOD     42
 UBDSV06 SAVING              CHD IN MODEL TEST_TRANS       PACKAGE TEST_TRANS      CONNECTED TO MODEL TEST_TRANS       PACKAGE CHD              ON UNIT   1016 AT TIME STEP      7, STRESS PERIOD     42

 HEAD WILL BE SAVED ON UNIT 1017 AT END OF TIME STEP    7, STRESS PERIOD   42


  VOLUME BUDGET FOR ENTIRE MODEL AT END OF TIME STEP    7, STRESS PERIOD  42
  ---------------------------------------------------------------------------------------------------

     CUMULATIVE VOLUME      L**3       RATES FOR THIS TIME STEP      L**3/T          PACKAGE NAME    
     ------------------                 ------------------------                     ----------------

           IN:                                      IN:
           ---                                      ---
              STO-SS =          54.9171                STO-SS =       8.3766E-02     STORAGE         
              STO-SY =       34998.4649                STO-SY =          52.0708     STORAGE         
                 RCH =      203389.4069                   RCH =          71.5068     RCHA            
                 CHD =         227.2620                   CHD =           0.0000     CHD             

            TOTAL IN =      238670.0509              TOTAL IN =         123.6614

          OUT:                                     OUT:
          ----                                     ----
              STO-SS =          47.8358                STO-SS =       3.7924E-03     STORAGE         
              STO-SY =       30856.2091                STO-SY =           2.5941     STORAGE         
                 RCH =           0.0000                   RCH =           0.0000     RCHA            
                 CHD =      207767.4944                   CHD =         121.0626     CHD             

           TOTAL OUT =      238671.5392             TOTAL OUT =         123.6604

            IN - OUT =          -1.4883              IN - OUT =       1.0086E-03

 PERCENT DISCREPANCY =          -0.00     PERCENT DISCREPANCY =           0.00




         TIME SUMMARY AT END OF TIME STEP    7 IN STRESS PERIOD   42
                    SECONDS     MINUTES      HOURS       DAYS        YEARS
                    -----------------------------------------------------------
   TIME STEP LENGTH 2.59200E+05  4320.0      72.000      3.0000     8.21355E-03
 STRESS PERIOD TIME 1.81440E+06  30240.      504.00      21.000     5.74949E-02
         TOTAL TIME 1.05581E+08 1.75968E+06  29328.      1222.0      3.3457    
 UBDSV1 SAVING           STO-SS ON UNIT   1016 AT TIME STEP      8, STRESS PERIOD     42
 UBDSV1 SAVING           STO-SY ON UNIT   1016 AT TIME STEP      8, STRESS PERIOD     42
 UBDSV1 SAVING     FLOW-JA-FACE ON UNIT   1016 AT TIME STEP      8, STRESS PERIOD     42
 UBDSV06 SAVING              RCH IN MODEL TEST_TRANS       PACKAGE TEST_TRANS      CONNECTED TO MODEL TEST_TRANS       PACKAGE RCHA             ON UNIT   1016 AT TIME STEP      8, STRESS PERIOD     42
 UBDSV06 SAVING              CHD IN MODEL TEST_TRANS       PACKAGE TEST_TRANS      CONNECTED TO MODEL TEST_TRANS       PACKAGE CHD              ON UNIT   1016 AT TIME STEP      8, STRESS PERIOD     42

 HEAD WILL BE SAVED ON UNIT 1017 AT END OF TIME STEP    8, STRESS PERIOD   42


  VOLUME BUDGET FOR ENTIRE MODEL AT END OF TIME STEP    8, STRESS PERIOD  42
  ---------------------------------------------------------------------------------------------------

     CUMULATIVE VOLUME      L**3       RATES FOR THIS TIME STEP      L**3/T          PACKAGE NAME    
     ------------------                 ------------------------                     ----------------

           IN:                                      IN:
           ---                                      ---
              STO-SS =          55.1636                STO-SS =       8.2175E-02     STORAGE         
              STO-SY =       35151.9289                STO-SY =          51.1547     STORAGE         
                 RCH =      203603.9275                   RCH =          71.5068     RCHA            
                 CHD =         227.2620                   CHD =           0.0000     CHD             

            TOTAL IN =      239038.2820              TOTAL IN =         122.7437

          OUT:                                     OUT:
          ----                                     ----
              STO-SS =          47.8407                STO-SS =       1.6515E-03     STORAGE         
              STO-SY =       30859.6113                STO-SY =           1.1341     STORAGE         
                 RCH =           0.0000                   RCH =           0.0000     RCHA            
                 CHD =      208132.3144                   CHD =         121.6066     CHD             

           TOTAL OUT =      239039.7664             TOTAL OUT =         122.7424

            IN - OUT =          -1.4844              IN - OUT =       1.3201E-03

 PERCENT DISCREPANCY =          -0.00     PERCENT DISCREPANCY =           0.00




         TIME SUMMARY AT END OF TIME STEP    8 IN STRESS PERIOD   42
                    SECONDS     MINUTES      HOURS       DAYS        YEARS
                    -----------------------------------------------------------
   TIME STEP LENGTH 2.59200E+05  4320.0      72.000      3.0000     8.21355E-03
 STRESS PERIOD TIME 2.07360E+06  34560.      576.00      24.000     6.57084E-02
         TOTAL TIME 1.05840E+08 1.76400E+06  29400.      1225.0      3.3539    
 UBDSV1 SAVING           STO-SS ON UNIT   1016 AT TIME STEP      9, STRESS PERIOD     42
 UBDSV1 SAVING           STO-SY ON UNIT   1016 AT TIME STEP      9, STRESS PERIOD     42
 UBDSV1 SAVING     FLOW-JA-FACE ON UNIT   1016 AT TIME STEP      9, STRESS PERIOD     42
 UBDSV06 SAVING              RCH IN MODEL TEST_TRANS       PACKAGE TEST_TRANS      CONNECTED TO MODEL TEST_TRANS       PACKAGE RCHA             ON UNIT   1016 AT TIME STEP      9, STRESS PERIOD     42
 UBDSV06 SAVING              CHD IN MODEL TEST_TRANS       PACKAGE TEST_TRANS      CONNECTED TO MODEL TEST_TRANS       PACKAGE CHD              ON UNIT   1016 AT TIME STEP      9, STRESS PERIOD     42

 HEAD WILL BE SAVED ON UNIT 1017 AT END OF TIME STEP    9, STRESS PERIOD   42


  VOLUME BUDGET FOR ENTIRE MODEL AT END OF TIME STEP    9, STRESS PERIOD  42
  ---------------------------------------------------------------------------------------------------

     CUMULATIVE VOLUME      L**3       RATES FOR THIS TIME STEP      L**3/T          PACKAGE NAME    
     ------------------                 ------------------------                     ----------------

           IN:                                      IN:
           ---                                      ---
              STO-SS =          55.4069                STO-SS =       8.1113E-02     STORAGE         
              STO-SY =       35303.6704                STO-SY =          50.5805     STORAGE         
                 RCH =      203818.4480                   RCH =          71.5068     RCHA            
                 CHD =         227.2620                   CHD =           0.0000     CHD             

            TOTAL IN =      239404.7874              TOTAL IN =         122.1685

          OUT:                                     OUT:
          ----                                     ----
              STO-SS =          47.8421                STO-SS =       4.6399E-04     STORAGE         
              STO-SY =       30860.5733                STO-SY =           0.3206     STORAGE         
                 RCH =           0.0000                   RCH =           0.0000     RCHA            
                 CHD =      208497.8519                   CHD =         121.8458     CHD             

           TOTAL OUT =      239406.2672             TOTAL OUT =         122.1669

            IN - OUT =          -1.4798              IN - OUT =       1.5276E-03

 PERCENT DISCREPANCY =          -0.00     PERCENT DISCREPANCY =           0.00




         TIME SUMMARY AT END OF TIME STEP    9 IN STRESS PERIOD   42
                    SECONDS     MINUTES      HOURS       DAYS        YEARS
                    -----------------------------------------------------------
   TIME STEP LENGTH 2.59200E+05  4320.0      72.000      3.0000     8.21355E-03
 STRESS PERIOD TIME 2.33280E+06  38880.      648.00      27.000     7.39220E-02
         TOTAL TIME 1.06099E+08 1.76832E+06  29472.      1228.0      3.3621    
 UBDSV1 SAVING           STO-SS ON UNIT   1016 AT TIME STEP     10, STRESS PERIOD     42
 UBDSV1 SAVING           STO-SY ON UNIT   1016 AT TIME STEP     10, STRESS PERIOD     42
 UBDSV1 SAVING     FLOW-JA-FACE ON UNIT   1016 AT TIME STEP     10, STRESS PERIOD     42
 UBDSV06 SAVING              RCH IN MODEL TEST_TRANS       PACKAGE TEST_TRANS      CONNECTED TO MODEL TEST_TRANS       PACKAGE RCHA             ON UNIT   1016 AT TIME STEP     10, STRESS PERIOD     42
 UBDSV06 SAVING              CHD IN MODEL TEST_TRANS       PACKAGE TEST_TRANS      CONNECTED TO MODEL TEST_TRANS       PACKAGE CHD              ON UNIT   1016 AT TIME STEP     10, STRESS PERIOD     42

 HEAD WILL BE SAVED ON UNIT 1017 AT END OF TIME STEP   10, STRESS PERIOD   42


  VOLUME BUDGET FOR ENTIRE MODEL AT END OF TIME STEP   10, STRESS PERIOD  42
  ---------------------------------------------------------------------------------------------------

     CUMULATIVE VOLUME      L**3       RATES FOR THIS TIME STEP      L**3/T          PACKAGE NAME    
     ------------------                 ------------------------                     ----------------

           IN:                                      IN:
           ---                                      ---
              STO-SS =          55.6484                STO-SS =       8.0487E-02     STORAGE         
              STO-SY =       35454.5451                STO-SY =          50.2916     STORAGE         
                 RCH =      204032.9686                   RCH =          71.5068     RCHA            
                 CHD =         227.2620                   CHD =           0.0000     CHD             

            TOTAL IN =      239770.4241              TOTAL IN =         121.8789

          OUT:                                     OUT:
          ----                                     ----
              STO-SS =          47.8421                STO-SS =       9.8365E-06     STORAGE         
              STO-SY =       30860.5940                STO-SY =       6.9029E-03     STORAGE         
                 RCH =           0.0000                   RCH =           0.0000     RCHA            
                 CHD =      208863.4629                   CHD =         121.8703     CHD             

           TOTAL OUT =      239771.8990             TOTAL OUT =         121.8773

            IN - OUT =          -1.4749              IN - OUT =       1.6468E-03

 PERCENT DISCREPANCY =          -0.00     PERCENT DISCREPANCY =           0.00




         TIME SUMMARY AT END OF TIME STEP   10 IN STRESS PERIOD   42
                    SECONDS     MINUTES      HOURS       DAYS        YEARS
                    -----------------------------------------------------------
   TIME STEP LENGTH 2.59200E+05  4320.0      72.000      3.0000     8.21355E-03
 STRESS PERIOD TIME 2.59200E+06  43200.      720.00      30.000     8.21355E-02
         TOTAL TIME 1.06358E+08 1.77264E+06  29544.      1231.0      3.3703    

 OUTPUT CONTROL FOR STRESS PERIOD 43 IS REPEATED USING SETTINGS FROM A PREVIOUS STRESS PERIOD.


 STRESS PERIOD 43 IS TRANSIENT


                 RECHARGE =  0.5479452E-03
 UBDSV1 SAVING           STO-SS ON UNIT   1016 AT TIME STEP      1, STRESS PERIOD     43
 UBDSV1 SAVING           STO-SY ON UNIT   1016 AT TIME STEP      1, STRESS PERIOD     43
 UBDSV1 SAVING     FLOW-JA-FACE ON UNIT   1016 AT TIME STEP      1, STRESS PERIOD     43
 UBDSV06 SAVING              RCH IN MODEL TEST_TRANS       PACKAGE TEST_TRANS      CONNECTED TO MODEL TEST_TRANS       PACKAGE RCHA             ON UNIT   1016 AT TIME STEP      1, STRESS PERIOD     43
 UBDSV06 SAVING              CHD IN MODEL TEST_TRANS       PACKAGE TEST_TRANS      CONNECTED TO MODEL TEST_TRANS       PACKAGE CHD              ON UNIT   1016 AT TIME STEP      1, STRESS PERIOD     43

 HEAD WILL BE SAVED ON UNIT 1017 AT END OF TIME STEP    1, STRESS PERIOD   43


  VOLUME BUDGET FOR ENTIRE MODEL AT END OF TIME STEP    1, STRESS PERIOD  43
  ---------------------------------------------------------------------------------------------------

     CUMULATIVE VOLUME      L**3       RATES FOR THIS TIME STEP      L**3/T          PACKAGE NAME    
     ------------------                 ------------------------                     ----------------

           IN:                                      IN:
           ---                                      ---
              STO-SS =          55.9451                STO-SS =       9.8898E-02     STORAGE         
              STO-SY =       35639.7014                STO-SY =          61.7188     STORAGE         
                 RCH =      204175.9823                   RCH =          47.6712     RCHA            
                 CHD =         313.8567                   CHD =          28.8649     CHD             

            TOTAL IN =      240185.4854              TOTAL IN =         138.3538

          OUT:                                     OUT:
          ----                                     ----
              STO-SS =          48.4442                STO-SS =           0.2007     STORAGE         
              STO-SY =       31275.0524                STO-SY =         138.1528     STORAGE         
                 RCH =           0.0000                   RCH =           0.0000     RCHA            
                 CHD =      208863.4629                   CHD =           0.0000     CHD             

           TOTAL OUT =      240186.9595             TOTAL OUT =         138.3535

            IN - OUT =          -1.4741              IN - OUT =       2.5521E-04

 PERCENT DISCREPANCY =          -0.00     PERCENT DISCREPANCY =           0.00




         TIME SUMMARY AT END OF TIME STEP    1 IN STRESS PERIOD   43
                    SECONDS     MINUTES      HOURS       DAYS        YEARS
                    -----------------------------------------------------------
   TIME STEP LENGTH 2.59200E+05  4320.0      72.000      3.0000     8.21355E-03
 STRESS PERIOD TIME 2.59200E+05  4320.0      72.000      3.0000     8.21355E-03
         TOTAL TIME 1.06618E+08 1.77696E+06  29616.      1234.0      3.3785    
 UBDSV1 SAVING           STO-SS ON UNIT   1016 AT TIME STEP      2, STRESS PERIOD     43
 UBDSV1 SAVING           STO-SY ON UNIT   1016 AT TIME STEP      2, STRESS PERIOD     43
 UBDSV1 SAVING     FLOW-JA-FACE ON UNIT   1016 AT TIME STEP      2, STRESS PERIOD     43
 UBDSV06 SAVING              RCH IN MODEL TEST_TRANS       PACKAGE TEST_TRANS      CONNECTED TO MODEL TEST_TRANS       PACKAGE RCHA             ON UNIT   1016 AT TIME STEP      2, STRESS PERIOD     43
 UBDSV06 SAVING              CHD IN MODEL TEST_TRANS       PACKAGE TEST_TRANS      CONNECTED TO MODEL TEST_TRANS       PACKAGE CHD              ON UNIT   1016 AT TIME STEP      2, STRESS PERIOD     43

 HEAD WILL BE SAVED ON UNIT 1017 AT END OF TIME STEP    2, STRESS PERIOD   43


  VOLUME BUDGET FOR ENTIRE MODEL AT END OF TIME STEP    2, STRESS PERIOD  43
  ---------------------------------------------------------------------------------------------------

     CUMULATIVE VOLUME      L**3       RATES FOR THIS TIME STEP      L**3/T          PACKAGE NAME    
     ------------------                 ------------------------                     ----------------

           IN:                                      IN:
           ---                                      ---
              STO-SS =          56.2182                STO-SS =       9.1035E-02     STORAGE         
              STO-SY =       35809.9713                STO-SY =          56.7566     STORAGE         
                 RCH =      204318.9960                   RCH =          47.6712     RCHA            
                 CHD =         313.8567                   CHD =           0.0000     CHD             

            TOTAL IN =      240499.0421              TOTAL IN =         104.5189

          OUT:                                     OUT:
          ----                                     ----
              STO-SS =          48.7820                STO-SS =           0.1126     STORAGE         
              STO-SY =       31504.0409                STO-SY =          76.3295     STORAGE         
                 RCH =           0.0000                   RCH =           0.0000     RCHA            
                 CHD =      208947.6943                   CHD =          28.0771     CHD             

           TOTAL OUT =      240500.5173             TOTAL OUT =         104.5192

            IN - OUT =          -1.4752              IN - OUT =      -3.5509E-04

 PERCENT DISCREPANCY =          -0.00     PERCENT DISCREPANCY =          -0.00




         TIME SUMMARY AT END OF TIME STEP    2 IN STRESS PERIOD   43
                    SECONDS     MINUTES      HOURS       DAYS        YEARS
                    -----------------------------------------------------------
   TIME STEP LENGTH 2.59200E+05  4320.0      72.000      3.0000     8.21355E-03
 STRESS PERIOD TIME 5.18400E+05  8640.0      144.00      6.0000     1.64271E-02
         TOTAL TIME 1.06877E+08 1.78128E+06  29688.      1237.0      3.3867    
 UBDSV1 SAVING           STO-SS ON UNIT   1016 AT TIME STEP      3, STRESS PERIOD     43
 UBDSV1 SAVING           STO-SY ON UNIT   1016 AT TIME STEP      3, STRESS PERIOD     43
 UBDSV1 SAVING     FLOW-JA-FACE ON UNIT   1016 AT TIME STEP      3, STRESS PERIOD     43
 UBDSV06 SAVING              RCH IN MODEL TEST_TRANS       PACKAGE TEST_TRANS      CONNECTED TO MODEL TEST_TRANS       PACKAGE RCHA             ON UNIT   1016 AT TIME STEP      3, STRESS PERIOD     43
 UBDSV06 SAVING              CHD IN MODEL TEST_TRANS       PACKAGE TEST_TRANS      CONNECTED TO MODEL TEST_TRANS       PACKAGE CHD              ON UNIT   1016 AT TIME STEP      3, STRESS PERIOD     43

 HEAD WILL BE SAVED ON UNIT 1017 AT END OF TIME STEP    3, STRESS PERIOD   43


  VOLUME BUDGET FOR ENTIRE MODEL AT END OF TIME STEP    3, STRESS PERIOD  43
  ---------------------------------------------------------------------------------------------------

     CUMULATIVE VOLUME      L**3       RATES FOR THIS TIME STEP      L**3/T          PACKAGE NAME    
     ------------------                 ------------------------                     ----------------

           IN:                                      IN:
           ---                                      ---
              STO-SS =          56.4716                STO-SS =       8.4463E-02     STORAGE         
              STO-SY =       35967.8983                STO-SY =          52.6424     STORAGE         
                 RCH =      204462.0097                   RCH =          47.6712     RCHA            
                 CHD =         313.8567                   CHD =           0.0000     CHD             

            TOTAL IN =      240800.2362              TOTAL IN =         100.3980

          OUT:                                     OUT:
          ----                                     ----
              STO-SS =          49.0087                STO-SS =       7.5568E-02     STORAGE         
              STO-SY =       31656.5468                STO-SY =          50.8353     STORAGE         
                 RCH =           0.0000                   RCH =           0.0000     RCHA            
                 CHD =      209096.1579                   CHD =          49.4879     CHD             

           TOTAL OUT =      240801.7134             TOTAL OUT =         100.3987

            IN - OUT =          -1.4771              IN - OUT =      -6.6012E-04

 PERCENT DISCREPANCY =          -0.00     PERCENT DISCREPANCY =          -0.00




         TIME SUMMARY AT END OF TIME STEP    3 IN STRESS PERIOD   43
                    SECONDS     MINUTES      HOURS       DAYS        YEARS
                    -----------------------------------------------------------
   TIME STEP LENGTH 2.59200E+05  4320.0      72.000      3.0000     8.21355E-03
 STRESS PERIOD TIME 7.77600E+05  12960.      216.00      9.0000     2.46407E-02
         TOTAL TIME 1.07136E+08 1.78560E+06  29760.      1240.0      3.3949    
 UBDSV1 SAVING           STO-SS ON UNIT   1016 AT TIME STEP      4, STRESS PERIOD     43
 UBDSV1 SAVING           STO-SY ON UNIT   1016 AT TIME STEP      4, STRESS PERIOD     43
 UBDSV1 SAVING     FLOW-JA-FACE ON UNIT   1016 AT TIME STEP      4, STRESS PERIOD     43
 UBDSV06 SAVING              RCH IN MODEL TEST_TRANS       PACKAGE TEST_TRANS      CONNECTED TO MODEL TEST_TRANS       PACKAGE RCHA             ON UNIT   1016 AT TIME STEP      4, STRESS PERIOD     43
 UBDSV06 SAVING              CHD IN MODEL TEST_TRANS       PACKAGE TEST_TRANS      CONNECTED TO MODEL TEST_TRANS       PACKAGE CHD              ON UNIT   1016 AT TIME STEP      4, STRESS PERIOD     43

 HEAD WILL BE SAVED ON UNIT 1017 AT END OF TIME STEP    4, STRESS PERIOD   43


  VOLUME BUDGET FOR ENTIRE MODEL AT END OF TIME STEP    4, STRESS PERIOD  43
  ---------------------------------------------------------------------------------------------------

     CUMULATIVE VOLUME      L**3       RATES FOR THIS TIME STEP      L**3/T          PACKAGE NAME    
     ------------------                 ------------------------                     ----------------

           IN:                                      IN:
           ---                                      ---
              STO-SS =          56.7078                STO-SS =       7.8747E-02     STORAGE         
              STO-SY =       36115.1394                STO-SY =          49.0804     STORAGE         
                 RCH =      204605.0234                   RCH =          47.6712     RCHA            
                 CHD =         313.8567                   CHD =           0.0000     CHD             

            TOTAL IN =      241090.7273              TOTAL IN =          96.8303

          OUT:                                     OUT:
          ----                                     ----
              STO-SS =          49.1721                STO-SS =       5.4462E-02     STORAGE         
              STO-SY =       31765.9234                STO-SY =          36.4589     STORAGE         
                 RCH =           0.0000                   RCH =           0.0000     RCHA            
                 CHD =      209277.1109                   CHD =          60.3177     CHD             

           TOTAL OUT =      241092.2064             TOTAL OUT =          96.8310

            IN - OUT =          -1.4791              IN - OUT =      -6.7130E-04

 PERCENT DISCREPANCY =          -0.00     PERCENT DISCREPANCY =          -0.00




         TIME SUMMARY AT END OF TIME STEP    4 IN STRESS PERIOD   43
                    SECONDS     MINUTES      HOURS       DAYS        YEARS
                    -----------------------------------------------------------
   TIME STEP LENGTH 2.59200E+05  4320.0      72.000      3.0000     8.21355E-03
 STRESS PERIOD TIME 1.03680E+06  17280.      288.00      12.000     3.28542E-02
         TOTAL TIME 1.07395E+08 1.78992E+06  29832.      1243.0      3.4031    
 UBDSV1 SAVING           STO-SS ON UNIT   1016 AT TIME STEP      5, STRESS PERIOD     43
 UBDSV1 SAVING           STO-SY ON UNIT   1016 AT TIME STEP      5, STRESS PERIOD     43
 UBDSV1 SAVING     FLOW-JA-FACE ON UNIT   1016 AT TIME STEP      5, STRESS PERIOD     43
 UBDSV06 SAVING              RCH IN MODEL TEST_TRANS       PACKAGE TEST_TRANS      CONNECTED TO MODEL TEST_TRANS       PACKAGE RCHA             ON UNIT   1016 AT TIME STEP      5, STRESS PERIOD     43
 UBDSV06 SAVING              CHD IN MODEL TEST_TRANS       PACKAGE TEST_TRANS      CONNECTED TO MODEL TEST_TRANS       PACKAGE CHD              ON UNIT   1016 AT TIME STEP      5, STRESS PERIOD     43

 HEAD WILL BE SAVED ON UNIT 1017 AT END OF TIME STEP    5, STRESS PERIOD   43


  VOLUME BUDGET FOR ENTIRE MODEL AT END OF TIME STEP    5, STRESS PERIOD  43
  ---------------------------------------------------------------------------------------------------

     CUMULATIVE VOLUME      L**3       RATES FOR THIS TIME STEP      L**3/T          PACKAGE NAME    
     ------------------                 ------------------------                     ----------------

           IN:                                      IN:
           ---                                      ---
              STO-SS =          56.9298                STO-SS =       7.4009E-02     STORAGE         
              STO-SY =       36253.5709                STO-SY =          46.1438     STORAGE         
                 RCH =      204748.0371                   RCH =          47.6712     RCHA            
                 CHD =         313.8567                   CHD =           0.0000     CHD             

            TOTAL IN =      241372.3945              TOTAL IN =          93.8891

          OUT:                                     OUT:
          ----                                     ----
              STO-SS =          49.2938                STO-SS =       4.0551E-02     STORAGE         
              STO-SY =       31847.0888                STO-SY =          27.0551     STORAGE         
                 RCH =           0.0000                   RCH =           0.0000     RCHA            
                 CHD =      209477.4982                   CHD =          66.7958     CHD             

           TOTAL OUT =      241373.8808             TOTAL OUT =          93.8915

            IN - OUT =          -1.4863              IN - OUT =      -2.3918E-03

 PERCENT DISCREPANCY =          -0.00     PERCENT DISCREPANCY =          -0.00




         TIME SUMMARY AT END OF TIME STEP    5 IN STRESS PERIOD   43
                    SECONDS     MINUTES      HOURS       DAYS        YEARS
                    -----------------------------------------------------------
   TIME STEP LENGTH 2.59200E+05  4320.0      72.000      3.0000     8.21355E-03
 STRESS PERIOD TIME 1.29600E+06  21600.      360.00      15.000     4.10678E-02
         TOTAL TIME 1.07654E+08 1.79424E+06  29904.      1246.0      3.4114    
 UBDSV1 SAVING           STO-SS ON UNIT   1016 AT TIME STEP      6, STRESS PERIOD     43
 UBDSV1 SAVING           STO-SY ON UNIT   1016 AT TIME STEP      6, STRESS PERIOD     43
 UBDSV1 SAVING     FLOW-JA-FACE ON UNIT   1016 AT TIME STEP      6, STRESS PERIOD     43
 UBDSV06 SAVING              RCH IN MODEL TEST_TRANS       PACKAGE TEST_TRANS      CONNECTED TO MODEL TEST_TRANS       PACKAGE RCHA             ON UNIT   1016 AT TIME STEP      6, STRESS PERIOD     43
 UBDSV06 SAVING              CHD IN MODEL TEST_TRANS       PACKAGE TEST_TRANS      CONNECTED TO MODEL TEST_TRANS       PACKAGE CHD              ON UNIT   1016 AT TIME STEP      6, STRESS PERIOD     43

 HEAD WILL BE SAVED ON UNIT 1017 AT END OF TIME STEP    6, STRESS PERIOD   43


  VOLUME BUDGET FOR ENTIRE MODEL AT END OF TIME STEP    6, STRESS PERIOD  43
  ---------------------------------------------------------------------------------------------------

     CUMULATIVE VOLUME      L**3       RATES FOR THIS TIME STEP      L**3/T          PACKAGE NAME    
     ------------------                 ------------------------                     ----------------

           IN:                                      IN:
           ---                                      ---
              STO-SS =          57.1394                STO-SS =       6.9867E-02     STORAGE         
              STO-SY =       36384.3210                STO-SY =          43.5834     STORAGE         
                 RCH =      204891.0508                   RCH =          47.6712     RCHA            
                 CHD =         313.8567                   CHD =           0.0000     CHD             

            TOTAL IN =      241646.3679              TOTAL IN =          91.3245

          OUT:                                     OUT:
          ----                                     ----
              STO-SS =          49.3850                STO-SS =       3.0416E-02     STORAGE         
              STO-SY =       31907.8361                STO-SY =          20.2491     STORAGE         
                 RCH =           0.0000                   RCH =           0.0000     RCHA            
                 CHD =      209690.6395                   CHD =          71.0471     CHD             

           TOTAL OUT =      241647.8607             TOTAL OUT =          91.3266

            IN - OUT =          -1.4928              IN - OUT =      -2.1627E-03

 PERCENT DISCREPANCY =          -0.00     PERCENT DISCREPANCY =          -0.00




         TIME SUMMARY AT END OF TIME STEP    6 IN STRESS PERIOD   43
                    SECONDS     MINUTES      HOURS       DAYS        YEARS
                    -----------------------------------------------------------
   TIME STEP LENGTH 2.59200E+05  4320.0      72.000      3.0000     8.21355E-03
 STRESS PERIOD TIME 1.55520E+06  25920.      432.00      18.000     4.92813E-02
         TOTAL TIME 1.07914E+08 1.79856E+06  29976.      1249.0      3.4196    
 UBDSV1 SAVING           STO-SS ON UNIT   1016 AT TIME STEP      7, STRESS PERIOD     43
 UBDSV1 SAVING           STO-SY ON UNIT   1016 AT TIME STEP      7, STRESS PERIOD     43
 UBDSV1 SAVING     FLOW-JA-FACE ON UNIT   1016 AT TIME STEP      7, STRESS PERIOD     43
 UBDSV06 SAVING              RCH IN MODEL TEST_TRANS       PACKAGE TEST_TRANS      CONNECTED TO MODEL TEST_TRANS       PACKAGE RCHA             ON UNIT   1016 AT TIME STEP      7, STRESS PERIOD     43
 UBDSV06 SAVING              CHD IN MODEL TEST_TRANS       PACKAGE TEST_TRANS      CONNECTED TO MODEL TEST_TRANS       PACKAGE CHD              ON UNIT   1016 AT TIME STEP      7, STRESS PERIOD     43

 HEAD WILL BE SAVED ON UNIT 1017 AT END OF TIME STEP    7, STRESS PERIOD   43


  VOLUME BUDGET FOR ENTIRE MODEL AT END OF TIME STEP    7, STRESS PERIOD  43
  ---------------------------------------------------------------------------------------------------

     CUMULATIVE VOLUME      L**3       RATES FOR THIS TIME STEP      L**3/T          PACKAGE NAME    
     ------------------                 ------------------------                     ----------------

           IN:                                      IN:
           ---                                      ---
              STO-SS =          57.3384                STO-SS =       6.6321E-02     STORAGE         
              STO-SY =       36508.5153                STO-SY =          41.3981     STORAGE         
                 RCH =      205034.0645                   RCH =          47.6712     RCHA            
                 CHD =         313.8567                   CHD =           0.0000     CHD             

            TOTAL IN =      241913.7748              TOTAL IN =          89.1357

          OUT:                                     OUT:
          ----                                     ----
              STO-SS =          49.4533                STO-SS =       2.2748E-02     STORAGE         
              STO-SY =       31953.2095                STO-SY =          15.1245     STORAGE         
                 RCH =           0.0000                   RCH =           0.0000     RCHA            
                 CHD =      209912.6091                   CHD =          73.9899     CHD             

           TOTAL OUT =      241915.2719             TOTAL OUT =          89.1371

            IN - OUT =          -1.4970              IN - OUT =      -1.4095E-03

 PERCENT DISCREPANCY =          -0.00     PERCENT DISCREPANCY =          -0.00




         TIME SUMMARY AT END OF TIME STEP    7 IN STRESS PERIOD   43
                    SECONDS     MINUTES      HOURS       DAYS        YEARS
                    -----------------------------------------------------------
   TIME STEP LENGTH 2.59200E+05  4320.0      72.000      3.0000     8.21355E-03
 STRESS PERIOD TIME 1.81440E+06  30240.      504.00      21.000     5.74949E-02
         TOTAL TIME 1.08173E+08 1.80288E+06  30048.      1252.0      3.4278    
 UBDSV1 SAVING           STO-SS ON UNIT   1016 AT TIME STEP      8, STRESS PERIOD     43
 UBDSV1 SAVING           STO-SY ON UNIT   1016 AT TIME STEP      8, STRESS PERIOD     43
 UBDSV1 SAVING     FLOW-JA-FACE ON UNIT   1016 AT TIME STEP      8, STRESS PERIOD     43
 UBDSV06 SAVING              RCH IN MODEL TEST_TRANS       PACKAGE TEST_TRANS      CONNECTED TO MODEL TEST_TRANS       PACKAGE RCHA             ON UNIT   1016 AT TIME STEP      8, STRESS PERIOD     43
 UBDSV06 SAVING              CHD IN MODEL TEST_TRANS       PACKAGE TEST_TRANS      CONNECTED TO MODEL TEST_TRANS       PACKAGE CHD              ON UNIT   1016 AT TIME STEP      8, STRESS PERIOD     43

 HEAD WILL BE SAVED ON UNIT 1017 AT END OF TIME STEP    8, STRESS PERIOD   43


  VOLUME BUDGET FOR ENTIRE MODEL AT END OF TIME STEP    8, STRESS PERIOD  43
  ---------------------------------------------------------------------------------------------------

     CUMULATIVE VOLUME      L**3       RATES FOR THIS TIME STEP      L**3/T          PACKAGE NAME    
     ------------------                 ------------------------                     ----------------

           IN:                                      IN:
           ---                                      ---
              STO-SS =          57.5283                STO-SS =       6.3301E-02     STORAGE         
              STO-SY =       36627.1441                STO-SY =          39.5429     STORAGE         
                 RCH =      205177.0782                   RCH =          47.6712     RCHA            
                 CHD =         313.8567                   CHD =           0.0000     CHD             

            TOTAL IN =      242175.6073              TOTAL IN =          87.2775

          OUT:                                     OUT:
          ----                                     ----
              STO-SS =          49.5037                STO-SS =       1.6813E-02     STORAGE         
              STO-SY =       31986.7231                STO-SY =          11.1712     STORAGE         
                 RCH =           0.0000                   RCH =           0.0000     RCHA            
                 CHD =      210140.8802                   CHD =          76.0904     CHD             

           TOTAL OUT =      242177.1070             TOTAL OUT =          87.2784

            IN - OUT =          -1.4997              IN - OUT =      -8.8363E-04

 PERCENT DISCREPANCY =          -0.00     PERCENT DISCREPANCY =          -0.00




         TIME SUMMARY AT END OF TIME STEP    8 IN STRESS PERIOD   43
                    SECONDS     MINUTES      HOURS       DAYS        YEARS
                    -----------------------------------------------------------
   TIME STEP LENGTH 2.59200E+05  4320.0      72.000      3.0000     8.21355E-03
 STRESS PERIOD TIME 2.07360E+06  34560.      576.00      24.000     6.57084E-02
         TOTAL TIME 1.08432E+08 1.80720E+06  30120.      1255.0      3.4360    
 UBDSV1 SAVING           STO-SS ON UNIT   1016 AT TIME STEP      9, STRESS PERIOD     43
 UBDSV1 SAVING           STO-SY ON UNIT   1016 AT TIME STEP      9, STRESS PERIOD     43
 UBDSV1 SAVING     FLOW-JA-FACE ON UNIT   1016 AT TIME STEP      9, STRESS PERIOD     43
 UBDSV06 SAVING              RCH IN MODEL TEST_TRANS       PACKAGE TEST_TRANS      CONNECTED TO MODEL TEST_TRANS       PACKAGE RCHA             ON UNIT   1016 AT TIME STEP      9, STRESS PERIOD     43
 UBDSV06 SAVING              CHD IN MODEL TEST_TRANS       PACKAGE TEST_TRANS      CONNECTED TO MODEL TEST_TRANS       PACKAGE CHD              ON UNIT   1016 AT TIME STEP      9, STRESS PERIOD     43

 HEAD WILL BE SAVED ON UNIT 1017 AT END OF TIME STEP    9, STRESS PERIOD   43


  VOLUME BUDGET FOR ENTIRE MODEL AT END OF TIME STEP    9, STRESS PERIOD  43
  ---------------------------------------------------------------------------------------------------

     CUMULATIVE VOLUME      L**3       RATES FOR THIS TIME STEP      L**3/T          PACKAGE NAME    
     ------------------                 ------------------------                     ----------------

           IN:                                      IN:
           ---                                      ---
              STO-SS =          57.7104                STO-SS =       6.0718E-02     STORAGE         
              STO-SY =       36741.0277                STO-SY =          37.9612     STORAGE         
                 RCH =      205320.0919                   RCH =          47.6712     RCHA            
                 CHD =         313.8567                   CHD =           0.0000     CHD             

            TOTAL IN =      242432.6867              TOTAL IN =          85.6931

          OUT:                                     OUT:
          ----                                     ----
              STO-SS =          49.5401                STO-SS =       1.2143E-02     STORAGE         
              STO-SY =       32010.9272                STO-SY =           8.0680     STORAGE         
                 RCH =           0.0000                   RCH =           0.0000     RCHA            
                 CHD =      210373.7206                   CHD =          77.6135     CHD             

           TOTAL OUT =      242434.1879             TOTAL OUT =          85.6936

            IN - OUT =          -1.5011              IN - OUT =      -4.8399E-04

 PERCENT DISCREPANCY =          -0.00     PERCENT DISCREPANCY =          -0.00




         TIME SUMMARY AT END OF TIME STEP    9 IN STRESS PERIOD   43
                    SECONDS     MINUTES      HOURS       DAYS        YEARS
                    -----------------------------------------------------------
   TIME STEP LENGTH 2.59200E+05  4320.0      72.000      3.0000     8.21355E-03
 STRESS PERIOD TIME 2.33280E+06  38880.      648.00      27.000     7.39220E-02
         TOTAL TIME 1.08691E+08 1.81152E+06  30192.      1258.0      3.4442    
 UBDSV1 SAVING           STO-SS ON UNIT   1016 AT TIME STEP     10, STRESS PERIOD     43
 UBDSV1 SAVING           STO-SY ON UNIT   1016 AT TIME STEP     10, STRESS PERIOD     43
 UBDSV1 SAVING     FLOW-JA-FACE ON UNIT   1016 AT TIME STEP     10, STRESS PERIOD     43
 UBDSV06 SAVING              RCH IN MODEL TEST_TRANS       PACKAGE TEST_TRANS      CONNECTED TO MODEL TEST_TRANS       PACKAGE RCHA             ON UNIT   1016 AT TIME STEP     10, STRESS PERIOD     43
 UBDSV06 SAVING              CHD IN MODEL TEST_TRANS       PACKAGE TEST_TRANS      CONNECTED TO MODEL TEST_TRANS       PACKAGE CHD              ON UNIT   1016 AT TIME STEP     10, STRESS PERIOD     43

 HEAD WILL BE SAVED ON UNIT 1017 AT END OF TIME STEP   10, STRESS PERIOD   43


  VOLUME BUDGET FOR ENTIRE MODEL AT END OF TIME STEP   10, STRESS PERIOD  43
  ---------------------------------------------------------------------------------------------------

     CUMULATIVE VOLUME      L**3       RATES FOR THIS TIME STEP      L**3/T          PACKAGE NAME    
     ------------------                 ------------------------                     ----------------

           IN:                                      IN:
           ---                                      ---
              STO-SS =          57.8863                STO-SS =       5.8630E-02     STORAGE         
              STO-SY =       36851.0979                STO-SY =          36.6901     STORAGE         
                 RCH =      205463.1056                   RCH =          47.6712     RCHA            
                 CHD =         313.8567                   CHD =           0.0000     CHD             

            TOTAL IN =      242685.9465              TOTAL IN =          84.4199

          OUT:                                     OUT:
          ----                                     ----
              STO-SS =          49.5658                STO-SS =       8.5642E-03     STORAGE         
              STO-SY =       32028.0051                STO-SY =           5.6926     STORAGE         
                 RCH =           0.0000                   RCH =           0.0000     RCHA            
                 CHD =      210609.9088                   CHD =          78.7294     CHD             

           TOTAL OUT =      242687.4797             TOTAL OUT =          84.4306

            IN - OUT =          -1.5332              IN - OUT =      -1.0700E-02

 PERCENT DISCREPANCY =          -0.00     PERCENT DISCREPANCY =          -0.01




         TIME SUMMARY AT END OF TIME STEP   10 IN STRESS PERIOD   43
                    SECONDS     MINUTES      HOURS       DAYS        YEARS
                    -----------------------------------------------------------
   TIME STEP LENGTH 2.59200E+05  4320.0      72.000      3.0000     8.21355E-03
 STRESS PERIOD TIME 2.59200E+06  43200.      720.00      30.000     8.21355E-02
         TOTAL TIME 1.08950E+08 1.81584E+06  30264.      1261.0      3.4524    

 OUTPUT CONTROL FOR STRESS PERIOD 44 IS REPEATED USING SETTINGS FROM A PREVIOUS STRESS PERIOD.


 STRESS PERIOD 44 IS TRANSIENT


                 RECHARGE =  0.1095890E-02
 UBDSV1 SAVING           STO-SS ON UNIT   1016 AT TIME STEP      1, STRESS PERIOD     44
 UBDSV1 SAVING           STO-SY ON UNIT   1016 AT TIME STEP      1, STRESS PERIOD     44
 UBDSV1 SAVING     FLOW-JA-FACE ON UNIT   1016 AT TIME STEP      1, STRESS PERIOD     44
 UBDSV06 SAVING              RCH IN MODEL TEST_TRANS       PACKAGE TEST_TRANS      CONNECTED TO MODEL TEST_TRANS       PACKAGE RCHA             ON UNIT   1016 AT TIME STEP      1, STRESS PERIOD     44
 UBDSV06 SAVING              CHD IN MODEL TEST_TRANS       PACKAGE TEST_TRANS      CONNECTED TO MODEL TEST_TRANS       PACKAGE CHD              ON UNIT   1016 AT TIME STEP      1, STRESS PERIOD     44

 HEAD WILL BE SAVED ON UNIT 1017 AT END OF TIME STEP    1, STRESS PERIOD   44


  VOLUME BUDGET FOR ENTIRE MODEL AT END OF TIME STEP    1, STRESS PERIOD  44
  ---------------------------------------------------------------------------------------------------

     CUMULATIVE VOLUME      L**3       RATES FOR THIS TIME STEP      L**3/T          PACKAGE NAME    
     ------------------                 ------------------------                     ----------------

           IN:                                      IN:
           ---                                      ---
              STO-SS =          58.6392                STO-SS =           0.2509     STORAGE         
              STO-SY =       37361.4778                STO-SY =         170.1266     STORAGE         
                 RCH =      205749.1329                   RCH =          95.3424     RCHA            
                 CHD =         313.8567                   CHD =           0.0000     CHD             

            TOTAL IN =      243483.1065              TOTAL IN =         265.7200

          OUT:                                     OUT:
          ----                                     ----
              STO-SS =          49.5886                STO-SS =       7.6009E-03     STORAGE         
              STO-SY =       32042.6788                STO-SY =           4.8912     STORAGE         
                 RCH =           0.0000                   RCH =           0.0000     RCHA            
                 CHD =      211392.3747                   CHD =         260.8220     CHD             

           TOTAL OUT =      243484.6421             TOTAL OUT =         265.7208

            IN - OUT =          -1.5356              IN - OUT =      -7.8582E-04

 PERCENT DISCREPANCY =          -0.00     PERCENT DISCREPANCY =          -0.00




         TIME SUMMARY AT END OF TIME STEP    1 IN STRESS PERIOD   44
                    SECONDS     MINUTES      HOURS       DAYS        YEARS
                    -----------------------------------------------------------
   TIME STEP LENGTH 2.59200E+05  4320.0      72.000      3.0000     8.21355E-03
 STRESS PERIOD TIME 2.59200E+05  4320.0      72.000      3.0000     8.21355E-03
         TOTAL TIME 1.09210E+08 1.82016E+06  30336.      1264.0      3.4606    
 UBDSV1 SAVING           STO-SS ON UNIT   1016 AT TIME STEP      2, STRESS PERIOD     44
 UBDSV1 SAVING           STO-SY ON UNIT   1016 AT TIME STEP      2, STRESS PERIOD     44
 UBDSV1 SAVING     FLOW-JA-FACE ON UNIT   1016 AT TIME STEP      2, STRESS PERIOD     44
 UBDSV06 SAVING              RCH IN MODEL TEST_TRANS       PACKAGE TEST_TRANS      CONNECTED TO MODEL TEST_TRANS       PACKAGE RCHA             ON UNIT   1016 AT TIME STEP      2, STRESS PERIOD     44
 UBDSV06 SAVING              CHD IN MODEL TEST_TRANS       PACKAGE TEST_TRANS      CONNECTED TO MODEL TEST_TRANS       PACKAGE CHD              ON UNIT   1016 AT TIME STEP      2, STRESS PERIOD     44

 HEAD WILL BE SAVED ON UNIT 1017 AT END OF TIME STEP    2, STRESS PERIOD   44


  VOLUME BUDGET FOR ENTIRE MODEL AT END OF TIME STEP    2, STRESS PERIOD  44
  ---------------------------------------------------------------------------------------------------

     CUMULATIVE VOLUME      L**3       RATES FOR THIS TIME STEP      L**3/T          PACKAGE NAME    
     ------------------                 ------------------------                     ----------------

           IN:                                      IN:
           ---                                      ---
              STO-SS =          59.0889                STO-SS =           0.1499     STORAGE         
              STO-SY =       37664.8429                STO-SY =         101.1217     STORAGE         
                 RCH =      206035.1601                   RCH =          95.3424     RCHA            
                 CHD =         313.8567                   CHD =           0.0000     CHD             

            TOTAL IN =      244072.9487              TOTAL IN =         196.6141

          OUT:                                     OUT:
          ----                                     ----
              STO-SS =          49.5928                STO-SS =       1.3768E-03     STORAGE         
              STO-SY =       32045.3189                STO-SY =           0.8800     STORAGE         
                 RCH =           0.0000                   RCH =           0.0000     RCHA            
                 CHD =      211979.5788                   CHD =         195.7347     CHD             

           TOTAL OUT =      244074.4905             TOTAL OUT =         196.6161

            IN - OUT =          -1.5418              IN - OUT =      -2.0816E-03

 PERCENT DISCREPANCY =          -0.00     PERCENT DISCREPANCY =          -0.00




         TIME SUMMARY AT END OF TIME STEP    2 IN STRESS PERIOD   44
                    SECONDS     MINUTES      HOURS       DAYS        YEARS
                    -----------------------------------------------------------
   TIME STEP LENGTH 2.59200E+05  4320.0      72.000      3.0000     8.21355E-03
 STRESS PERIOD TIME 5.18400E+05  8640.0      144.00      6.0000     1.64271E-02
         TOTAL TIME 1.09469E+08 1.82448E+06  30408.      1267.0      3.4689    
 UBDSV1 SAVING           STO-SS ON UNIT   1016 AT TIME STEP      3, STRESS PERIOD     44
 UBDSV1 SAVING           STO-SY ON UNIT   1016 AT TIME STEP      3, STRESS PERIOD     44
 UBDSV1 SAVING     FLOW-JA-FACE ON UNIT   1016 AT TIME STEP      3, STRESS PERIOD     44
 UBDSV06 SAVING              RCH IN MODEL TEST_TRANS       PACKAGE TEST_TRANS      CONNECTED TO MODEL TEST_TRANS       PACKAGE RCHA             ON UNIT   1016 AT TIME STEP      3, STRESS PERIOD     44
 UBDSV06 SAVING              CHD IN MODEL TEST_TRANS       PACKAGE TEST_TRANS      CONNECTED TO MODEL TEST_TRANS       PACKAGE CHD              ON UNIT   1016 AT TIME STEP      3, STRESS PERIOD     44

 HEAD WILL BE SAVED ON UNIT 1017 AT END OF TIME STEP    3, STRESS PERIOD   44


  VOLUME BUDGET FOR ENTIRE MODEL AT END OF TIME STEP    3, STRESS PERIOD  44
  ---------------------------------------------------------------------------------------------------

     CUMULATIVE VOLUME      L**3       RATES FOR THIS TIME STEP      L**3/T          PACKAGE NAME    
     ------------------                 ------------------------                     ----------------

           IN:                                      IN:
           ---                                      ---
              STO-SS =          59.4264                STO-SS =           0.1125     STORAGE         
              STO-SY =       37890.6580                STO-SY =          75.2717     STORAGE         
                 RCH =      206321.1874                   RCH =          95.3424     RCHA            
                 CHD =         313.8567                   CHD =           0.0000     CHD             

            TOTAL IN =      244585.1286              TOTAL IN =         170.7266

          OUT:                                     OUT:
          ----                                     ----
              STO-SS =          49.5928                STO-SS =           0.0000     STORAGE         
              STO-SY =       32045.3189                STO-SY =           0.0000     STORAGE         
                 RCH =           0.0000                   RCH =           0.0000     RCHA            
                 CHD =      212491.7530                   CHD =         170.7247     CHD             

           TOTAL OUT =      244586.6646             TOTAL OUT =         170.7247

            IN - OUT =          -1.5361              IN - OUT =       1.9321E-03

 PERCENT DISCREPANCY =          -0.00     PERCENT DISCREPANCY =           0.00




         TIME SUMMARY AT END OF TIME STEP    3 IN STRESS PERIOD   44
                    SECONDS     MINUTES      HOURS       DAYS        YEARS
                    -----------------------------------------------------------
   TIME STEP LENGTH 2.59200E+05  4320.0      72.000      3.0000     8.21355E-03
 STRESS PERIOD TIME 7.77600E+05  12960.      216.00      9.0000     2.46407E-02
         TOTAL TIME 1.09728E+08 1.82880E+06  30480.      1270.0      3.4771    
 UBDSV1 SAVING           STO-SS ON UNIT   1016 AT TIME STEP      4, STRESS PERIOD     44
 UBDSV1 SAVING           STO-SY ON UNIT   1016 AT TIME STEP      4, STRESS PERIOD     44
 UBDSV1 SAVING     FLOW-JA-FACE ON UNIT   1016 AT TIME STEP      4, STRESS PERIOD     44
 UBDSV06 SAVING              RCH IN MODEL TEST_TRANS       PACKAGE TEST_TRANS      CONNECTED TO MODEL TEST_TRANS       PACKAGE RCHA             ON UNIT   1016 AT TIME STEP      4, STRESS PERIOD     44
 UBDSV06 SAVING              CHD IN MODEL TEST_TRANS       PACKAGE TEST_TRANS      CONNECTED TO MODEL TEST_TRANS       PACKAGE CHD              ON UNIT   1016 AT TIME STEP      4, STRESS PERIOD     44

 HEAD WILL BE SAVED ON UNIT 1017 AT END OF TIME STEP    4, STRESS PERIOD   44


  VOLUME BUDGET FOR ENTIRE MODEL AT END OF TIME STEP    4, STRESS PERIOD  44
  ---------------------------------------------------------------------------------------------------

     CUMULATIVE VOLUME      L**3       RATES FOR THIS TIME STEP      L**3/T          PACKAGE NAME    
     ------------------                 ------------------------                     ----------------

           IN:                                      IN:
           ---                                      ---
              STO-SS =          59.7081                STO-SS =       9.3901E-02     STORAGE         
              STO-SY =       38077.7972                STO-SY =          62.3797     STORAGE         
                 RCH =      206607.2147                   RCH =          95.3424     RCHA            
                 CHD =         313.8567                   CHD =           0.0000     CHD             

            TOTAL IN =      245058.5767              TOTAL IN =         157.8161

          OUT:                                     OUT:
          ----                                     ----
              STO-SS =          49.5928                STO-SS =           0.0000     STORAGE         
              STO-SY =       32045.3189                STO-SY =           0.0000     STORAGE         
                 RCH =           0.0000                   RCH =           0.0000     RCHA            
                 CHD =      212965.1908                   CHD =         157.8126     CHD             

           TOTAL OUT =      245060.1025             TOTAL OUT =         157.8126

            IN - OUT =          -1.5258              IN - OUT =       3.4320E-03

 PERCENT DISCREPANCY =          -0.00     PERCENT DISCREPANCY =           0.00




         TIME SUMMARY AT END OF TIME STEP    4 IN STRESS PERIOD   44
                    SECONDS     MINUTES      HOURS       DAYS        YEARS
                    -----------------------------------------------------------
   TIME STEP LENGTH 2.59200E+05  4320.0      72.000      3.0000     8.21355E-03
 STRESS PERIOD TIME 1.03680E+06  17280.      288.00      12.000     3.28542E-02
         TOTAL TIME 1.09987E+08 1.83312E+06  30552.      1273.0      3.4853    
 UBDSV1 SAVING           STO-SS ON UNIT   1016 AT TIME STEP      5, STRESS PERIOD     44
 UBDSV1 SAVING           STO-SY ON UNIT   1016 AT TIME STEP      5, STRESS PERIOD     44
 UBDSV1 SAVING     FLOW-JA-FACE ON UNIT   1016 AT TIME STEP      5, STRESS PERIOD     44
 UBDSV06 SAVING              RCH IN MODEL TEST_TRANS       PACKAGE TEST_TRANS      CONNECTED TO MODEL TEST_TRANS       PACKAGE RCHA             ON UNIT   1016 AT TIME STEP      5, STRESS PERIOD     44
 UBDSV06 SAVING              CHD IN MODEL TEST_TRANS       PACKAGE TEST_TRANS      CONNECTED TO MODEL TEST_TRANS       PACKAGE CHD              ON UNIT   1016 AT TIME STEP      5, STRESS PERIOD     44

 HEAD WILL BE SAVED ON UNIT 1017 AT END OF TIME STEP    5, STRESS PERIOD   44


  VOLUME BUDGET FOR ENTIRE MODEL AT END OF TIME STEP    5, STRESS PERIOD  44
  ---------------------------------------------------------------------------------------------------

     CUMULATIVE VOLUME      L**3       RATES FOR THIS TIME STEP      L**3/T          PACKAGE NAME    
     ------------------                 ------------------------                     ----------------

           IN:                                      IN:
           ---                                      ---
              STO-SS =          59.9554                STO-SS =       8.2427E-02     STORAGE         
              STO-SY =       38241.1414                STO-SY =          54.4481     STORAGE         
                 RCH =      206893.2420                   RCH =          95.3424     RCHA            
                 CHD =         313.8567                   CHD =           0.0000     CHD             

            TOTAL IN =      245508.1955              TOTAL IN =         149.8729

          OUT:                                     OUT:
          ----                                     ----
              STO-SS =          49.5928                STO-SS =           0.0000     STORAGE         
              STO-SY =       32045.3189                STO-SY =           0.0000     STORAGE         
                 RCH =           0.0000                   RCH =           0.0000     RCHA            
                 CHD =      213414.7998                   CHD =         149.8697     CHD             

           TOTAL OUT =      245509.7115             TOTAL OUT =         149.8697

            IN - OUT =          -1.5160              IN - OUT =       3.2528E-03

 PERCENT DISCREPANCY =          -0.00     PERCENT DISCREPANCY =           0.00




         TIME SUMMARY AT END OF TIME STEP    5 IN STRESS PERIOD   44
                    SECONDS     MINUTES      HOURS       DAYS        YEARS
                    -----------------------------------------------------------
   TIME STEP LENGTH 2.59200E+05  4320.0      72.000      3.0000     8.21355E-03
 STRESS PERIOD TIME 1.29600E+06  21600.      360.00      15.000     4.10678E-02
         TOTAL TIME 1.10246E+08 1.83744E+06  30624.      1276.0      3.4935    
 UBDSV1 SAVING           STO-SS ON UNIT   1016 AT TIME STEP      6, STRESS PERIOD     44
 UBDSV1 SAVING           STO-SY ON UNIT   1016 AT TIME STEP      6, STRESS PERIOD     44
 UBDSV1 SAVING     FLOW-JA-FACE ON UNIT   1016 AT TIME STEP      6, STRESS PERIOD     44
 UBDSV06 SAVING              RCH IN MODEL TEST_TRANS       PACKAGE TEST_TRANS      CONNECTED TO MODEL TEST_TRANS       PACKAGE RCHA             ON UNIT   1016 AT TIME STEP      6, STRESS PERIOD     44
 UBDSV06 SAVING              CHD IN MODEL TEST_TRANS       PACKAGE TEST_TRANS      CONNECTED TO MODEL TEST_TRANS       PACKAGE CHD              ON UNIT   1016 AT TIME STEP      6, STRESS PERIOD     44

 HEAD WILL BE SAVED ON UNIT 1017 AT END OF TIME STEP    6, STRESS PERIOD   44


  VOLUME BUDGET FOR ENTIRE MODEL AT END OF TIME STEP    6, STRESS PERIOD  44
  ---------------------------------------------------------------------------------------------------

     CUMULATIVE VOLUME      L**3       RATES FOR THIS TIME STEP      L**3/T          PACKAGE NAME    
     ------------------                 ------------------------                     ----------------

           IN:                                      IN:
           ---                                      ---
              STO-SS =          60.1790                STO-SS =       7.4549E-02     STORAGE         
              STO-SY =       38388.1977                STO-SY =          49.0188     STORAGE         
                 RCH =      207179.2693                   RCH =          95.3424     RCHA            
                 CHD =         313.8567                   CHD =           0.0000     CHD             

            TOTAL IN =      245941.5027              TOTAL IN =         144.4357

          OUT:                                     OUT:
          ----                                     ----
              STO-SS =          49.5928                STO-SS =           0.0000     STORAGE         
              STO-SY =       32045.3189                STO-SY =           0.0000     STORAGE         
                 RCH =           0.0000                   RCH =           0.0000     RCHA            
                 CHD =      213848.0987                   CHD =         144.4330     CHD             

           TOTAL OUT =      245943.0104             TOTAL OUT =         144.4330

            IN - OUT =          -1.5077              IN - OUT =       2.7697E-03

 PERCENT DISCREPANCY =          -0.00     PERCENT DISCREPANCY =           0.00




         TIME SUMMARY AT END OF TIME STEP    6 IN STRESS PERIOD   44
                    SECONDS     MINUTES      HOURS       DAYS        YEARS
                    -----------------------------------------------------------
   TIME STEP LENGTH 2.59200E+05  4320.0      72.000      3.0000     8.21355E-03
 STRESS PERIOD TIME 1.55520E+06  25920.      432.00      18.000     4.92813E-02
         TOTAL TIME 1.10506E+08 1.84176E+06  30696.      1279.0      3.5017    
 UBDSV1 SAVING           STO-SS ON UNIT   1016 AT TIME STEP      7, STRESS PERIOD     44
 UBDSV1 SAVING           STO-SY ON UNIT   1016 AT TIME STEP      7, STRESS PERIOD     44
 UBDSV1 SAVING     FLOW-JA-FACE ON UNIT   1016 AT TIME STEP      7, STRESS PERIOD     44
 UBDSV06 SAVING              RCH IN MODEL TEST_TRANS       PACKAGE TEST_TRANS      CONNECTED TO MODEL TEST_TRANS       PACKAGE RCHA             ON UNIT   1016 AT TIME STEP      7, STRESS PERIOD     44
 UBDSV06 SAVING              CHD IN MODEL TEST_TRANS       PACKAGE TEST_TRANS      CONNECTED TO MODEL TEST_TRANS       PACKAGE CHD              ON UNIT   1016 AT TIME STEP      7, STRESS PERIOD     44

 HEAD WILL BE SAVED ON UNIT 1017 AT END OF TIME STEP    7, STRESS PERIOD   44


  VOLUME BUDGET FOR ENTIRE MODEL AT END OF TIME STEP    7, STRESS PERIOD  44
  ---------------------------------------------------------------------------------------------------

     CUMULATIVE VOLUME      L**3       RATES FOR THIS TIME STEP      L**3/T          PACKAGE NAME    
     ------------------                 ------------------------                     ----------------

           IN:                                      IN:
           ---                                      ---
              STO-SS =          60.3853                STO-SS =       6.8748E-02     STORAGE         
              STO-SY =       38523.3033                STO-SY =          45.0352     STORAGE         
                 RCH =      207465.2966                   RCH =          95.3424     RCHA            
                 CHD =         313.8567                   CHD =           0.0000     CHD             

            TOTAL IN =      246362.8419              TOTAL IN =         140.4464

          OUT:                                     OUT:
          ----                                     ----
              STO-SS =          49.5928                STO-SS =           0.0000     STORAGE         
              STO-SY =       32045.3189                STO-SY =           0.0000     STORAGE         
                 RCH =           0.0000                   RCH =           0.0000     RCHA            
                 CHD =      214269.4193                   CHD =         140.4402     CHD             

           TOTAL OUT =      246364.3309             TOTAL OUT =         140.4402

            IN - OUT =          -1.4891              IN - OUT =       6.2112E-03

 PERCENT DISCREPANCY =          -0.00     PERCENT DISCREPANCY =           0.00




         TIME SUMMARY AT END OF TIME STEP    7 IN STRESS PERIOD   44
                    SECONDS     MINUTES      HOURS       DAYS        YEARS
                    -----------------------------------------------------------
   TIME STEP LENGTH 2.59200E+05  4320.0      72.000      3.0000     8.21355E-03
 STRESS PERIOD TIME 1.81440E+06  30240.      504.00      21.000     5.74949E-02
         TOTAL TIME 1.10765E+08 1.84608E+06  30768.      1282.0      3.5099    
 UBDSV1 SAVING           STO-SS ON UNIT   1016 AT TIME STEP      8, STRESS PERIOD     44
 UBDSV1 SAVING           STO-SY ON UNIT   1016 AT TIME STEP      8, STRESS PERIOD     44
 UBDSV1 SAVING     FLOW-JA-FACE ON UNIT   1016 AT TIME STEP      8, STRESS PERIOD     44
 UBDSV06 SAVING              RCH IN MODEL TEST_TRANS       PACKAGE TEST_TRANS      CONNECTED TO MODEL TEST_TRANS       PACKAGE RCHA             ON UNIT   1016 AT TIME STEP      8, STRESS PERIOD     44
 UBDSV06 SAVING              CHD IN MODEL TEST_TRANS       PACKAGE TEST_TRANS      CONNECTED TO MODEL TEST_TRANS       PACKAGE CHD              ON UNIT   1016 AT TIME STEP      8, STRESS PERIOD     44

 HEAD WILL BE SAVED ON UNIT 1017 AT END OF TIME STEP    8, STRESS PERIOD   44


  VOLUME BUDGET FOR ENTIRE MODEL AT END OF TIME STEP    8, STRESS PERIOD  44
  ---------------------------------------------------------------------------------------------------

     CUMULATIVE VOLUME      L**3       RATES FOR THIS TIME STEP      L**3/T          PACKAGE NAME    
     ------------------                 ------------------------                     ----------------

           IN:                                      IN:
           ---                                      ---
              STO-SS =          60.5780                STO-SS =       6.4247E-02     STORAGE         
              STO-SY =       38649.1738                STO-SY =          41.9568     STORAGE         
                 RCH =      207751.3239                   RCH =          95.3424     RCHA            
                 CHD =         313.8567                   CHD =           0.0000     CHD             

            TOTAL IN =      246774.9324              TOTAL IN =         137.3635

          OUT:                                     OUT:
          ----                                     ----
              STO-SS =          49.5928                STO-SS =           0.0000     STORAGE         
              STO-SY =       32045.3189                STO-SY =           0.0000     STORAGE         
                 RCH =           0.0000                   RCH =           0.0000     RCHA            
                 CHD =      214681.4944                   CHD =         137.3584     CHD             

           TOTAL OUT =      246776.4060             TOTAL OUT =         137.3584

            IN - OUT =          -1.4736              IN - OUT =       5.1370E-03

 PERCENT DISCREPANCY =          -0.00     PERCENT DISCREPANCY =           0.00




         TIME SUMMARY AT END OF TIME STEP    8 IN STRESS PERIOD   44
                    SECONDS     MINUTES      HOURS       DAYS        YEARS
                    -----------------------------------------------------------
   TIME STEP LENGTH 2.59200E+05  4320.0      72.000      3.0000     8.21355E-03
 STRESS PERIOD TIME 2.07360E+06  34560.      576.00      24.000     6.57084E-02
         TOTAL TIME 1.11024E+08 1.85040E+06  30840.      1285.0      3.5181    
 UBDSV1 SAVING           STO-SS ON UNIT   1016 AT TIME STEP      9, STRESS PERIOD     44
 UBDSV1 SAVING           STO-SY ON UNIT   1016 AT TIME STEP      9, STRESS PERIOD     44
 UBDSV1 SAVING     FLOW-JA-FACE ON UNIT   1016 AT TIME STEP      9, STRESS PERIOD     44
 UBDSV06 SAVING              RCH IN MODEL TEST_TRANS       PACKAGE TEST_TRANS      CONNECTED TO MODEL TEST_TRANS       PACKAGE RCHA             ON UNIT   1016 AT TIME STEP      9, STRESS PERIOD     44
 UBDSV06 SAVING              CHD IN MODEL TEST_TRANS       PACKAGE TEST_TRANS      CONNECTED TO MODEL TEST_TRANS       PACKAGE CHD              ON UNIT   1016 AT TIME STEP      9, STRESS PERIOD     44

 HEAD WILL BE SAVED ON UNIT 1017 AT END OF TIME STEP    9, STRESS PERIOD   44


  VOLUME BUDGET FOR ENTIRE MODEL AT END OF TIME STEP    9, STRESS PERIOD  44
  ---------------------------------------------------------------------------------------------------

     CUMULATIVE VOLUME      L**3       RATES FOR THIS TIME STEP      L**3/T          PACKAGE NAME    
     ------------------                 ------------------------                     ----------------

           IN:                                      IN:
           ---                                      ---
              STO-SS =          60.7599                STO-SS =       6.0626E-02     STORAGE         
              STO-SY =       38767.6452                STO-SY =          39.4905     STORAGE         
                 RCH =      208037.3512                   RCH =          95.3424     RCHA            
                 CHD =         313.8567                   CHD =           0.0000     CHD             

            TOTAL IN =      247179.6130              TOTAL IN =         134.8935

          OUT:                                     OUT:
          ----                                     ----
              STO-SS =          49.5928                STO-SS =           0.0000     STORAGE         
              STO-SY =       32045.3189                STO-SY =           0.0000     STORAGE         
                 RCH =           0.0000                   RCH =           0.0000     RCHA            
                 CHD =      215086.1619                   CHD =         134.8892     CHD             

           TOTAL OUT =      247181.0736             TOTAL OUT =         134.8892

            IN - OUT =          -1.4606              IN - OUT =       4.3436E-03

 PERCENT DISCREPANCY =          -0.00     PERCENT DISCREPANCY =           0.00




         TIME SUMMARY AT END OF TIME STEP    9 IN STRESS PERIOD   44
                    SECONDS     MINUTES      HOURS       DAYS        YEARS
                    -----------------------------------------------------------
   TIME STEP LENGTH 2.59200E+05  4320.0      72.000      3.0000     8.21355E-03
 STRESS PERIOD TIME 2.33280E+06  38880.      648.00      27.000     7.39220E-02
         TOTAL TIME 1.11283E+08 1.85472E+06  30912.      1288.0      3.5264    
 UBDSV1 SAVING           STO-SS ON UNIT   1016 AT TIME STEP     10, STRESS PERIOD     44
 UBDSV1 SAVING           STO-SY ON UNIT   1016 AT TIME STEP     10, STRESS PERIOD     44
 UBDSV1 SAVING     FLOW-JA-FACE ON UNIT   1016 AT TIME STEP     10, STRESS PERIOD     44
 UBDSV06 SAVING              RCH IN MODEL TEST_TRANS       PACKAGE TEST_TRANS      CONNECTED TO MODEL TEST_TRANS       PACKAGE RCHA             ON UNIT   1016 AT TIME STEP     10, STRESS PERIOD     44
 UBDSV06 SAVING              CHD IN MODEL TEST_TRANS       PACKAGE TEST_TRANS      CONNECTED TO MODEL TEST_TRANS       PACKAGE CHD              ON UNIT   1016 AT TIME STEP     10, STRESS PERIOD     44

 HEAD WILL BE SAVED ON UNIT 1017 AT END OF TIME STEP   10, STRESS PERIOD   44


  VOLUME BUDGET FOR ENTIRE MODEL AT END OF TIME STEP   10, STRESS PERIOD  44
  ---------------------------------------------------------------------------------------------------

     CUMULATIVE VOLUME      L**3       RATES FOR THIS TIME STEP      L**3/T          PACKAGE NAME    
     ------------------                 ------------------------                     ----------------

           IN:                                      IN:
           ---                                      ---
              STO-SS =          60.9328                STO-SS =       5.7628E-02     STORAGE         
              STO-SY =       38880.0136                STO-SY =          37.4561     STORAGE         
                 RCH =      208323.3785                   RCH =          95.3424     RCHA            
                 CHD =         313.8567                   CHD =           0.0000     CHD             

            TOTAL IN =      247578.1815              TOTAL IN =         132.8562

          OUT:                                     OUT:
          ----                                     ----
              STO-SS =          49.5928                STO-SS =           0.0000     STORAGE         
              STO-SY =       32045.3189                STO-SY =           0.0000     STORAGE         
                 RCH =           0.0000                   RCH =           0.0000     RCHA            
                 CHD =      215484.7192                   CHD =         132.8524     CHD             

           TOTAL OUT =      247579.6309             TOTAL OUT =         132.8524

            IN - OUT =          -1.4494              IN - OUT =       3.7448E-03

 PERCENT DISCREPANCY =          -0.00     PERCENT DISCREPANCY =           0.00




         TIME SUMMARY AT END OF TIME STEP   10 IN STRESS PERIOD   44
                    SECONDS     MINUTES      HOURS       DAYS        YEARS
                    -----------------------------------------------------------
   TIME STEP LENGTH 2.59200E+05  4320.0      72.000      3.0000     8.21355E-03
 STRESS PERIOD TIME 2.59200E+06  43200.      720.00      30.000     8.21355E-02
         TOTAL TIME 1.11542E+08 1.85904E+06  30984.      1291.0      3.5346    

 OUTPUT CONTROL FOR STRESS PERIOD 45 IS REPEATED USING SETTINGS FROM A PREVIOUS STRESS PERIOD.


 STRESS PERIOD 45 IS TRANSIENT


                 RECHARGE =  0.1643840E-02
 UBDSV1 SAVING           STO-SS ON UNIT   1016 AT TIME STEP      1, STRESS PERIOD     45
 UBDSV1 SAVING           STO-SY ON UNIT   1016 AT TIME STEP      1, STRESS PERIOD     45
 UBDSV1 SAVING     FLOW-JA-FACE ON UNIT   1016 AT TIME STEP      1, STRESS PERIOD     45
 UBDSV06 SAVING              RCH IN MODEL TEST_TRANS       PACKAGE TEST_TRANS      CONNECTED TO MODEL TEST_TRANS       PACKAGE RCHA             ON UNIT   1016 AT TIME STEP      1, STRESS PERIOD     45
 UBDSV06 SAVING              CHD IN MODEL TEST_TRANS       PACKAGE TEST_TRANS      CONNECTED TO MODEL TEST_TRANS       PACKAGE CHD              ON UNIT   1016 AT TIME STEP      1, STRESS PERIOD     45

 HEAD WILL BE SAVED ON UNIT 1017 AT END OF TIME STEP    1, STRESS PERIOD   45


  VOLUME BUDGET FOR ENTIRE MODEL AT END OF TIME STEP    1, STRESS PERIOD  45
  ---------------------------------------------------------------------------------------------------

     CUMULATIVE VOLUME      L**3       RATES FOR THIS TIME STEP      L**3/T          PACKAGE NAME    
     ------------------                 ------------------------                     ----------------

           IN:                                      IN:
           ---                                      ---
              STO-SS =          61.0384                STO-SS =       3.5215E-02     STORAGE         
              STO-SY =       38953.3812                STO-SY =          24.4559     STORAGE         
                 RCH =      208752.4207                   RCH =         143.0141     RCHA            
                 CHD =         313.8567                   CHD =           0.0000     CHD             

            TOTAL IN =      248080.6970              TOTAL IN =         167.5052

          OUT:                                     OUT:
          ----                                     ----
              STO-SS =          49.6413                STO-SS =       1.6187E-02     STORAGE         
              STO-SY =       32075.7688                STO-SY =          10.1500     STORAGE         
                 RCH =           0.0000                   RCH =           0.0000     RCHA            
                 CHD =      215956.7626                   CHD =         157.3478     CHD             

           TOTAL OUT =      248082.1727             TOTAL OUT =         167.5139

            IN - OUT =          -1.4757              IN - OUT =      -8.7792E-03

 PERCENT DISCREPANCY =          -0.00     PERCENT DISCREPANCY =          -0.01




         TIME SUMMARY AT END OF TIME STEP    1 IN STRESS PERIOD   45
                    SECONDS     MINUTES      HOURS       DAYS        YEARS
                    -----------------------------------------------------------
   TIME STEP LENGTH 2.59200E+05  4320.0      72.000      3.0000     8.21355E-03
 STRESS PERIOD TIME 2.59200E+05  4320.0      72.000      3.0000     8.21355E-03
         TOTAL TIME 1.11802E+08 1.86336E+06  31056.      1294.0      3.5428    
 UBDSV1 SAVING           STO-SS ON UNIT   1016 AT TIME STEP      2, STRESS PERIOD     45
 UBDSV1 SAVING           STO-SY ON UNIT   1016 AT TIME STEP      2, STRESS PERIOD     45
 UBDSV1 SAVING     FLOW-JA-FACE ON UNIT   1016 AT TIME STEP      2, STRESS PERIOD     45
 UBDSV06 SAVING              RCH IN MODEL TEST_TRANS       PACKAGE TEST_TRANS      CONNECTED TO MODEL TEST_TRANS       PACKAGE RCHA             ON UNIT   1016 AT TIME STEP      2, STRESS PERIOD     45
 UBDSV06 SAVING              CHD IN MODEL TEST_TRANS       PACKAGE TEST_TRANS      CONNECTED TO MODEL TEST_TRANS       PACKAGE CHD              ON UNIT   1016 AT TIME STEP      2, STRESS PERIOD     45

 HEAD WILL BE SAVED ON UNIT 1017 AT END OF TIME STEP    2, STRESS PERIOD   45


  VOLUME BUDGET FOR ENTIRE MODEL AT END OF TIME STEP    2, STRESS PERIOD  45
  ---------------------------------------------------------------------------------------------------

     CUMULATIVE VOLUME      L**3       RATES FOR THIS TIME STEP      L**3/T          PACKAGE NAME    
     ------------------                 ------------------------                     ----------------

           IN:                                      IN:
           ---                                      ---
              STO-SS =          61.1044                STO-SS =       2.1991E-02     STORAGE         
              STO-SY =       38998.6663                STO-SY =          15.0950     STORAGE         
                 RCH =      209181.4629                   RCH =         143.0141     RCHA            
                 CHD =         313.8567                   CHD =           0.0000     CHD             

            TOTAL IN =      248555.0903              TOTAL IN =         158.1311

          OUT:                                     OUT:
          ----                                     ----
              STO-SS =          49.6871                STO-SS =       1.5279E-02     STORAGE         
              STO-SY =       32104.4966                STO-SY =           9.5759     STORAGE         
                 RCH =           0.0000                   RCH =           0.0000     RCHA            
                 CHD =      216402.3846                   CHD =         148.5407     CHD             

           TOTAL OUT =      248556.5684             TOTAL OUT =         158.1319

            IN - OUT =          -1.4781              IN - OUT =      -7.8941E-04

 PERCENT DISCREPANCY =          -0.00     PERCENT DISCREPANCY =          -0.00




         TIME SUMMARY AT END OF TIME STEP    2 IN STRESS PERIOD   45
                    SECONDS     MINUTES      HOURS       DAYS        YEARS
                    -----------------------------------------------------------
   TIME STEP LENGTH 2.59200E+05  4320.0      72.000      3.0000     8.21355E-03
 STRESS PERIOD TIME 5.18400E+05  8640.0      144.00      6.0000     1.64271E-02
         TOTAL TIME 1.12061E+08 1.86768E+06  31128.      1297.0      3.5510    
 UBDSV1 SAVING           STO-SS ON UNIT   1016 AT TIME STEP      3, STRESS PERIOD     45
 UBDSV1 SAVING           STO-SY ON UNIT   1016 AT TIME STEP      3, STRESS PERIOD     45
 UBDSV1 SAVING     FLOW-JA-FACE ON UNIT   1016 AT TIME STEP      3, STRESS PERIOD     45
 UBDSV06 SAVING              RCH IN MODEL TEST_TRANS       PACKAGE TEST_TRANS      CONNECTED TO MODEL TEST_TRANS       PACKAGE RCHA             ON UNIT   1016 AT TIME STEP      3, STRESS PERIOD     45
 UBDSV06 SAVING              CHD IN MODEL TEST_TRANS       PACKAGE TEST_TRANS      CONNECTED TO MODEL TEST_TRANS       PACKAGE CHD              ON UNIT   1016 AT TIME STEP      3, STRESS PERIOD     45

 HEAD WILL BE SAVED ON UNIT 1017 AT END OF TIME STEP    3, STRESS PERIOD   45


  VOLUME BUDGET FOR ENTIRE MODEL AT END OF TIME STEP    3, STRESS PERIOD  45
  ---------------------------------------------------------------------------------------------------

     CUMULATIVE VOLUME      L**3       RATES FOR THIS TIME STEP      L**3/T          PACKAGE NAME    
     ------------------                 ------------------------                     ----------------

           IN:                                      IN:
           ---                                      ---
              STO-SS =          61.1526                STO-SS =       1.6056E-02     STORAGE         
              STO-SY =       39031.4847                STO-SY =          10.9395     STORAGE         
                 RCH =      209610.5052                   RCH =         143.0141     RCHA            
                 CHD =         313.8567                   CHD =           0.0000     CHD             

            TOTAL IN =      249016.9991              TOTAL IN =         153.9696

          OUT:                                     OUT:
          ----                                     ----
              STO-SS =          49.7302                STO-SS =       1.4358E-02     STORAGE         
              STO-SY =       32131.4788                STO-SY =           8.9940     STORAGE         
                 RCH =           0.0000                   RCH =           0.0000     RCHA            
                 CHD =      216837.2620                   CHD =         144.9591     CHD             

           TOTAL OUT =      249018.4710             TOTAL OUT =         153.9675

            IN - OUT =          -1.4718              IN - OUT =       2.0803E-03

 PERCENT DISCREPANCY =          -0.00     PERCENT DISCREPANCY =           0.00




         TIME SUMMARY AT END OF TIME STEP    3 IN STRESS PERIOD   45
                    SECONDS     MINUTES      HOURS       DAYS        YEARS
                    -----------------------------------------------------------
   TIME STEP LENGTH 2.59200E+05  4320.0      72.000      3.0000     8.21355E-03
 STRESS PERIOD TIME 7.77600E+05  12960.      216.00      9.0000     2.46407E-02
         TOTAL TIME 1.12320E+08 1.87200E+06  31200.      1300.0      3.5592    
 UBDSV1 SAVING           STO-SS ON UNIT   1016 AT TIME STEP      4, STRESS PERIOD     45
 UBDSV1 SAVING           STO-SY ON UNIT   1016 AT TIME STEP      4, STRESS PERIOD     45
 UBDSV1 SAVING     FLOW-JA-FACE ON UNIT   1016 AT TIME STEP      4, STRESS PERIOD     45
 UBDSV06 SAVING              RCH IN MODEL TEST_TRANS       PACKAGE TEST_TRANS      CONNECTED TO MODEL TEST_TRANS       PACKAGE RCHA             ON UNIT   1016 AT TIME STEP      4, STRESS PERIOD     45
 UBDSV06 SAVING              CHD IN MODEL TEST_TRANS       PACKAGE TEST_TRANS      CONNECTED TO MODEL TEST_TRANS       PACKAGE CHD              ON UNIT   1016 AT TIME STEP      4, STRESS PERIOD     45

 HEAD WILL BE SAVED ON UNIT 1017 AT END OF TIME STEP    4, STRESS PERIOD   45


  VOLUME BUDGET FOR ENTIRE MODEL AT END OF TIME STEP    4, STRESS PERIOD  45
  ---------------------------------------------------------------------------------------------------

     CUMULATIVE VOLUME      L**3       RATES FOR THIS TIME STEP      L**3/T          PACKAGE NAME    
     ------------------                 ------------------------                     ----------------

           IN:                                      IN:
           ---                                      ---
              STO-SS =          61.1899                STO-SS =       1.2450E-02     STORAGE         
              STO-SY =       39056.8141                STO-SY =           8.4431     STORAGE         
                 RCH =      210039.5474                   RCH =         143.0141     RCHA            
                 CHD =         313.8567                   CHD =           0.0000     CHD             

            TOTAL IN =      249471.4082              TOTAL IN =         151.4697

          OUT:                                     OUT:
          ----                                     ----
              STO-SS =          49.7707                STO-SS =       1.3478E-02     STORAGE         
              STO-SY =       32156.7968                STO-SY =           8.4393     STORAGE         
                 RCH =           0.0000                   RCH =           0.0000     RCHA            
                 CHD =      217266.3074                   CHD =         143.0151     CHD             

           TOTAL OUT =      249472.8748             TOTAL OUT =         151.4679

            IN - OUT =          -1.4666              IN - OUT =       1.7312E-03

 PERCENT DISCREPANCY =          -0.00     PERCENT DISCREPANCY =           0.00




         TIME SUMMARY AT END OF TIME STEP    4 IN STRESS PERIOD   45
                    SECONDS     MINUTES      HOURS       DAYS        YEARS
                    -----------------------------------------------------------
   TIME STEP LENGTH 2.59200E+05  4320.0      72.000      3.0000     8.21355E-03
 STRESS PERIOD TIME 1.03680E+06  17280.      288.00      12.000     3.28542E-02
         TOTAL TIME 1.12579E+08 1.87632E+06  31272.      1303.0      3.5674    
 UBDSV1 SAVING           STO-SS ON UNIT   1016 AT TIME STEP      5, STRESS PERIOD     45
 UBDSV1 SAVING           STO-SY ON UNIT   1016 AT TIME STEP      5, STRESS PERIOD     45
 UBDSV1 SAVING     FLOW-JA-FACE ON UNIT   1016 AT TIME STEP      5, STRESS PERIOD     45
 UBDSV06 SAVING              RCH IN MODEL TEST_TRANS       PACKAGE TEST_TRANS      CONNECTED TO MODEL TEST_TRANS       PACKAGE RCHA             ON UNIT   1016 AT TIME STEP      5, STRESS PERIOD     45
 UBDSV06 SAVING              CHD IN MODEL TEST_TRANS       PACKAGE TEST_TRANS      CONNECTED TO MODEL TEST_TRANS       PACKAGE CHD              ON UNIT   1016 AT TIME STEP      5, STRESS PERIOD     45

 HEAD WILL BE SAVED ON UNIT 1017 AT END OF TIME STEP    5, STRESS PERIOD   45


  VOLUME BUDGET FOR ENTIRE MODEL AT END OF TIME STEP    5, STRESS PERIOD  45
  ---------------------------------------------------------------------------------------------------

     CUMULATIVE VOLUME      L**3       RATES FOR THIS TIME STEP      L**3/T          PACKAGE NAME    
     ------------------                 ------------------------                     ----------------

           IN:                                      IN:
           ---                                      ---
              STO-SS =          61.2196                STO-SS =       9.9080E-03     STORAGE         
              STO-SY =       39076.9115                STO-SY =           6.6991     STORAGE         
                 RCH =      210468.5897                   RCH =         143.0141     RCHA            
                 CHD =         313.8567                   CHD =           0.0000     CHD             

            TOTAL IN =      249920.5774              TOTAL IN =         149.7231

          OUT:                                     OUT:
          ----                                     ----
              STO-SS =          49.8087                STO-SS =       1.2679E-02     STORAGE         
              STO-SY =       32180.6041                STO-SY =           7.9358     STORAGE         
                 RCH =           0.0000                   RCH =           0.0000     RCHA            
                 CHD =      217691.6244                   CHD =         141.7723     CHD             

           TOTAL OUT =      249922.0372             TOTAL OUT =         149.7208

            IN - OUT =          -1.4598              IN - OUT =       2.2932E-03

 PERCENT DISCREPANCY =          -0.00     PERCENT DISCREPANCY =           0.00




         TIME SUMMARY AT END OF TIME STEP    5 IN STRESS PERIOD   45
                    SECONDS     MINUTES      HOURS       DAYS        YEARS
                    -----------------------------------------------------------
   TIME STEP LENGTH 2.59200E+05  4320.0      72.000      3.0000     8.21355E-03
 STRESS PERIOD TIME 1.29600E+06  21600.      360.00      15.000     4.10678E-02
         TOTAL TIME 1.12838E+08 1.88064E+06  31344.      1306.0      3.5756    
 UBDSV1 SAVING           STO-SS ON UNIT   1016 AT TIME STEP      6, STRESS PERIOD     45
 UBDSV1 SAVING           STO-SY ON UNIT   1016 AT TIME STEP      6, STRESS PERIOD     45
 UBDSV1 SAVING     FLOW-JA-FACE ON UNIT   1016 AT TIME STEP      6, STRESS PERIOD     45
 UBDSV06 SAVING              RCH IN MODEL TEST_TRANS       PACKAGE TEST_TRANS      CONNECTED TO MODEL TEST_TRANS       PACKAGE RCHA             ON UNIT   1016 AT TIME STEP      6, STRESS PERIOD     45
 UBDSV06 SAVING              CHD IN MODEL TEST_TRANS       PACKAGE TEST_TRANS      CONNECTED TO MODEL TEST_TRANS       PACKAGE CHD              ON UNIT   1016 AT TIME STEP      6, STRESS PERIOD     45

 HEAD WILL BE SAVED ON UNIT 1017 AT END OF TIME STEP    6, STRESS PERIOD   45


  VOLUME BUDGET FOR ENTIRE MODEL AT END OF TIME STEP    6, STRESS PERIOD  45
  ---------------------------------------------------------------------------------------------------

     CUMULATIVE VOLUME      L**3       RATES FOR THIS TIME STEP      L**3/T          PACKAGE NAME    
     ------------------                 ------------------------                     ----------------

           IN:                                      IN:
           ---                                      ---
              STO-SS =          61.2436                STO-SS =       7.9828E-03     STORAGE         
              STO-SY =       39093.0724                STO-SY =           5.3870     STORAGE         
                 RCH =      210897.6319                   RCH =         143.0141     RCHA            
                 CHD =         313.8567                   CHD =           0.0000     CHD             

            TOTAL IN =      250365.8045              TOTAL IN =         148.4090

          OUT:                                     OUT:
          ----                                     ----
              STO-SS =          49.8445                STO-SS =       1.1941E-02     STORAGE         
              STO-SY =       32203.0186                STO-SY =           7.4715     STORAGE         
                 RCH =           0.0000                   RCH =           0.0000     RCHA            
                 CHD =      218114.3194                   CHD =         140.8983     CHD             

           TOTAL OUT =      250367.1825             TOTAL OUT =         148.3818

            IN - OUT =          -1.3779              IN - OUT =       2.7274E-02

 PERCENT DISCREPANCY =          -0.00     PERCENT DISCREPANCY =           0.02




         TIME SUMMARY AT END OF TIME STEP    6 IN STRESS PERIOD   45
                    SECONDS     MINUTES      HOURS       DAYS        YEARS
                    -----------------------------------------------------------
   TIME STEP LENGTH 2.59200E+05  4320.0      72.000      3.0000     8.21355E-03
 STRESS PERIOD TIME 1.55520E+06  25920.      432.00      18.000     4.92813E-02
         TOTAL TIME 1.13098E+08 1.88496E+06  31416.      1309.0      3.5838    
 UBDSV1 SAVING           STO-SS ON UNIT   1016 AT TIME STEP      7, STRESS PERIOD     45
 UBDSV1 SAVING           STO-SY ON UNIT   1016 AT TIME STEP      7, STRESS PERIOD     45
 UBDSV1 SAVING     FLOW-JA-FACE ON UNIT   1016 AT TIME STEP      7, STRESS PERIOD     45
 UBDSV06 SAVING              RCH IN MODEL TEST_TRANS       PACKAGE TEST_TRANS      CONNECTED TO MODEL TEST_TRANS       PACKAGE RCHA             ON UNIT   1016 AT TIME STEP      7, STRESS PERIOD     45
 UBDSV06 SAVING              CHD IN MODEL TEST_TRANS       PACKAGE TEST_TRANS      CONNECTED TO MODEL TEST_TRANS       PACKAGE CHD              ON UNIT   1016 AT TIME STEP      7, STRESS PERIOD     45

 HEAD WILL BE SAVED ON UNIT 1017 AT END OF TIME STEP    7, STRESS PERIOD   45


  VOLUME BUDGET FOR ENTIRE MODEL AT END OF TIME STEP    7, STRESS PERIOD  45
  ---------------------------------------------------------------------------------------------------

     CUMULATIVE VOLUME      L**3       RATES FOR THIS TIME STEP      L**3/T          PACKAGE NAME    
     ------------------                 ------------------------                     ----------------

           IN:                                      IN:
           ---                                      ---
              STO-SS =          61.2628                STO-SS =       6.4120E-03     STORAGE         
              STO-SY =       39106.0383                STO-SY =           4.3220     STORAGE         
                 RCH =      211326.6741                   RCH =         143.0141     RCHA            
                 CHD =         313.8567                   CHD =           0.0000     CHD             

            TOTAL IN =      250807.8319              TOTAL IN =         147.3425

          OUT:                                     OUT:
          ----                                     ----
              STO-SS =          49.8784                STO-SS =       1.1279E-02     STORAGE         
              STO-SY =       32224.1860                STO-SY =           7.0558     STORAGE         
                 RCH =           0.0000                   RCH =           0.0000     RCHA            
                 CHD =      218535.0846                   CHD =         140.2551     CHD             

           TOTAL OUT =      250809.1489             TOTAL OUT =         147.3222

            IN - OUT =          -1.3170              IN - OUT =       2.0318E-02

 PERCENT DISCREPANCY =          -0.00     PERCENT DISCREPANCY =           0.01




         TIME SUMMARY AT END OF TIME STEP    7 IN STRESS PERIOD   45
                    SECONDS     MINUTES      HOURS       DAYS        YEARS
                    -----------------------------------------------------------
   TIME STEP LENGTH 2.59200E+05  4320.0      72.000      3.0000     8.21355E-03
 STRESS PERIOD TIME 1.81440E+06  30240.      504.00      21.000     5.74949E-02
         TOTAL TIME 1.13357E+08 1.88928E+06  31488.      1312.0      3.5921    
 UBDSV1 SAVING           STO-SS ON UNIT   1016 AT TIME STEP      8, STRESS PERIOD     45
 UBDSV1 SAVING           STO-SY ON UNIT   1016 AT TIME STEP      8, STRESS PERIOD     45
 UBDSV1 SAVING     FLOW-JA-FACE ON UNIT   1016 AT TIME STEP      8, STRESS PERIOD     45
 UBDSV06 SAVING              RCH IN MODEL TEST_TRANS       PACKAGE TEST_TRANS      CONNECTED TO MODEL TEST_TRANS       PACKAGE RCHA             ON UNIT   1016 AT TIME STEP      8, STRESS PERIOD     45
 UBDSV06 SAVING              CHD IN MODEL TEST_TRANS       PACKAGE TEST_TRANS      CONNECTED TO MODEL TEST_TRANS       PACKAGE CHD              ON UNIT   1016 AT TIME STEP      8, STRESS PERIOD     45

 HEAD WILL BE SAVED ON UNIT 1017 AT END OF TIME STEP    8, STRESS PERIOD   45


  VOLUME BUDGET FOR ENTIRE MODEL AT END OF TIME STEP    8, STRESS PERIOD  45
  ---------------------------------------------------------------------------------------------------

     CUMULATIVE VOLUME      L**3       RATES FOR THIS TIME STEP      L**3/T          PACKAGE NAME    
     ------------------                 ------------------------                     ----------------

           IN:                                      IN:
           ---                                      ---
              STO-SS =          61.2782                STO-SS =       5.1325E-03     STORAGE         
              STO-SY =       39116.4117                STO-SY =           3.4578     STORAGE         
                 RCH =      211755.7164                   RCH =         143.0141     RCHA            
                 CHD =         313.8567                   CHD =           0.0000     CHD             

            TOTAL IN =      251247.2630              TOTAL IN =         146.4770

          OUT:                                     OUT:
          ----                                     ----
              STO-SS =          49.9104                STO-SS =       1.0688E-02     STORAGE         
              STO-SY =       32244.2408                STO-SY =           6.6849     STORAGE         
                 RCH =           0.0000                   RCH =           0.0000     RCHA            
                 CHD =      218954.3825                   CHD =         139.7660     CHD             

           TOTAL OUT =      251248.5337             TOTAL OUT =         146.4616

            IN - OUT =          -1.2707              IN - OUT =       1.5432E-02

 PERCENT DISCREPANCY =          -0.00     PERCENT DISCREPANCY =           0.01




         TIME SUMMARY AT END OF TIME STEP    8 IN STRESS PERIOD   45
                    SECONDS     MINUTES      HOURS       DAYS        YEARS
                    -----------------------------------------------------------
   TIME STEP LENGTH 2.59200E+05  4320.0      72.000      3.0000     8.21355E-03
 STRESS PERIOD TIME 2.07360E+06  34560.      576.00      24.000     6.57084E-02
         TOTAL TIME 1.13616E+08 1.89360E+06  31560.      1315.0      3.6003    
 UBDSV1 SAVING           STO-SS ON UNIT   1016 AT TIME STEP      9, STRESS PERIOD     45
 UBDSV1 SAVING           STO-SY ON UNIT   1016 AT TIME STEP      9, STRESS PERIOD     45
 UBDSV1 SAVING     FLOW-JA-FACE ON UNIT   1016 AT TIME STEP      9, STRESS PERIOD     45
 UBDSV06 SAVING              RCH IN MODEL TEST_TRANS       PACKAGE TEST_TRANS      CONNECTED TO MODEL TEST_TRANS       PACKAGE RCHA             ON UNIT   1016 AT TIME STEP      9, STRESS PERIOD     45
 UBDSV06 SAVING              CHD IN MODEL TEST_TRANS       PACKAGE TEST_TRANS      CONNECTED TO MODEL TEST_TRANS       PACKAGE CHD              ON UNIT   1016 AT TIME STEP      9, STRESS PERIOD     45

 HEAD WILL BE SAVED ON UNIT 1017 AT END OF TIME STEP    9, STRESS PERIOD   45


  VOLUME BUDGET FOR ENTIRE MODEL AT END OF TIME STEP    9, STRESS PERIOD  45
  ---------------------------------------------------------------------------------------------------

     CUMULATIVE VOLUME      L**3       RATES FOR THIS TIME STEP      L**3/T          PACKAGE NAME    
     ------------------                 ------------------------                     ----------------

           IN:                                      IN:
           ---                                      ---
              STO-SS =          61.2905                STO-SS =       4.0750E-03     STORAGE         
              STO-SY =       39124.6478                STO-SY =           2.7454     STORAGE         
                 RCH =      212184.7586                   RCH =         143.0141     RCHA            
                 CHD =         313.8567                   CHD =           0.0000     CHD             

            TOTAL IN =      251684.5536              TOTAL IN =         145.7635

          OUT:                                     OUT:
          ----                                     ----
              STO-SS =          49.9409                STO-SS =       1.0162E-02     STORAGE         
              STO-SY =       32263.3065                STO-SY =           6.3552     STORAGE         
                 RCH =           0.0000                   RCH =           0.0000     RCHA            
                 CHD =      219372.5413                   CHD =         139.3863     CHD             

           TOTAL OUT =      251685.7887             TOTAL OUT =         145.7517

            IN - OUT =          -1.2352              IN - OUT =       1.1838E-02

 PERCENT DISCREPANCY =          -0.00     PERCENT DISCREPANCY =           0.01




         TIME SUMMARY AT END OF TIME STEP    9 IN STRESS PERIOD   45
                    SECONDS     MINUTES      HOURS       DAYS        YEARS
                    -----------------------------------------------------------
   TIME STEP LENGTH 2.59200E+05  4320.0      72.000      3.0000     8.21355E-03
 STRESS PERIOD TIME 2.33280E+06  38880.      648.00      27.000     7.39220E-02
         TOTAL TIME 1.13875E+08 1.89792E+06  31632.      1318.0      3.6085    
 UBDSV1 SAVING           STO-SS ON UNIT   1016 AT TIME STEP     10, STRESS PERIOD     45
 UBDSV1 SAVING           STO-SY ON UNIT   1016 AT TIME STEP     10, STRESS PERIOD     45
 UBDSV1 SAVING     FLOW-JA-FACE ON UNIT   1016 AT TIME STEP     10, STRESS PERIOD     45
 UBDSV06 SAVING              RCH IN MODEL TEST_TRANS       PACKAGE TEST_TRANS      CONNECTED TO MODEL TEST_TRANS       PACKAGE RCHA             ON UNIT   1016 AT TIME STEP     10, STRESS PERIOD     45
 UBDSV06 SAVING              CHD IN MODEL TEST_TRANS       PACKAGE TEST_TRANS      CONNECTED TO MODEL TEST_TRANS       PACKAGE CHD              ON UNIT   1016 AT TIME STEP     10, STRESS PERIOD     45

 HEAD WILL BE SAVED ON UNIT 1017 AT END OF TIME STEP   10, STRESS PERIOD   45


  VOLUME BUDGET FOR ENTIRE MODEL AT END OF TIME STEP   10, STRESS PERIOD  45
  ---------------------------------------------------------------------------------------------------

     CUMULATIVE VOLUME      L**3       RATES FOR THIS TIME STEP      L**3/T          PACKAGE NAME    
     ------------------                 ------------------------                     ----------------

           IN:                                      IN:
           ---                                      ---
              STO-SS =          61.3001                STO-SS =       3.2073E-03     STORAGE         
              STO-SY =       39131.1327                STO-SY =           2.1616     STORAGE         
                 RCH =      212613.8009                   RCH =         143.0141     RCHA            
                 CHD =         313.8567                   CHD =           0.0000     CHD             

            TOTAL IN =      252120.0903              TOTAL IN =         145.1789

          OUT:                                     OUT:
          ----                                     ----
              STO-SS =          49.9700                STO-SS =       9.7095E-03     STORAGE         
              STO-SY =       32281.5223                STO-SY =           6.0719     STORAGE         
                 RCH =           0.0000                   RCH =           0.0000     RCHA            
                 CHD =      219789.8059                   CHD =         139.0882     CHD             

           TOTAL OUT =      252121.2982             TOTAL OUT =         145.1698

            IN - OUT =          -1.2079              IN - OUT =       9.0967E-03

 PERCENT DISCREPANCY =          -0.00     PERCENT DISCREPANCY =           0.01




         TIME SUMMARY AT END OF TIME STEP   10 IN STRESS PERIOD   45
                    SECONDS     MINUTES      HOURS       DAYS        YEARS
                    -----------------------------------------------------------
   TIME STEP LENGTH 2.59200E+05  4320.0      72.000      3.0000     8.21355E-03
 STRESS PERIOD TIME 2.59200E+06  43200.      720.00      30.000     8.21355E-02
         TOTAL TIME 1.14134E+08 1.90224E+06  31704.      1321.0      3.6167    

 OUTPUT CONTROL FOR STRESS PERIOD 46 IS REPEATED USING SETTINGS FROM A PREVIOUS STRESS PERIOD.


 STRESS PERIOD 46 IS TRANSIENT


                 RECHARGE =  0.2191780E-02
 UBDSV1 SAVING           STO-SS ON UNIT   1016 AT TIME STEP      1, STRESS PERIOD     46
 UBDSV1 SAVING           STO-SY ON UNIT   1016 AT TIME STEP      1, STRESS PERIOD     46
 UBDSV1 SAVING     FLOW-JA-FACE ON UNIT   1016 AT TIME STEP      1, STRESS PERIOD     46
 UBDSV06 SAVING              RCH IN MODEL TEST_TRANS       PACKAGE TEST_TRANS      CONNECTED TO MODEL TEST_TRANS       PACKAGE RCHA             ON UNIT   1016 AT TIME STEP      1, STRESS PERIOD     46
 UBDSV06 SAVING              CHD IN MODEL TEST_TRANS       PACKAGE TEST_TRANS      CONNECTED TO MODEL TEST_TRANS       PACKAGE CHD              ON UNIT   1016 AT TIME STEP      1, STRESS PERIOD     46

 HEAD WILL BE SAVED ON UNIT 1017 AT END OF TIME STEP    1, STRESS PERIOD   46


  VOLUME BUDGET FOR ENTIRE MODEL AT END OF TIME STEP    1, STRESS PERIOD  46
  ---------------------------------------------------------------------------------------------------

     CUMULATIVE VOLUME      L**3       RATES FOR THIS TIME STEP      L**3/T          PACKAGE NAME    
     ------------------                 ------------------------                     ----------------

           IN:                                      IN:
           ---                                      ---
              STO-SS =          61.4121                STO-SS =       3.7330E-02     STORAGE         
              STO-SY =       39210.1017                STO-SY =          26.3230     STORAGE         
                 RCH =      213185.8554                   RCH =         190.6849     RCHA            
                 CHD =         313.8567                   CHD =           0.0000     CHD             

            TOTAL IN =      252771.2259              TOTAL IN =         217.0452

          OUT:                                     OUT:
          ----                                     ----
              STO-SS =          50.1662                STO-SS =       6.5400E-02     STORAGE         
              STO-SY =       32405.6976                STO-SY =          41.3918     STORAGE         
                 RCH =           0.0000                   RCH =           0.0000     RCHA            
                 CHD =      220316.6261                   CHD =         175.6068     CHD             

           TOTAL OUT =      252772.4899             TOTAL OUT =         217.0639

            IN - OUT =          -1.2641              IN - OUT =      -1.8723E-02

 PERCENT DISCREPANCY =          -0.00     PERCENT DISCREPANCY =          -0.01




         TIME SUMMARY AT END OF TIME STEP    1 IN STRESS PERIOD   46
                    SECONDS     MINUTES      HOURS       DAYS        YEARS
                    -----------------------------------------------------------
   TIME STEP LENGTH 2.59200E+05  4320.0      72.000      3.0000     8.21355E-03
 STRESS PERIOD TIME 2.59200E+05  4320.0      72.000      3.0000     8.21355E-03
         TOTAL TIME 1.14394E+08 1.90656E+06  31776.      1324.0      3.6249    
 UBDSV1 SAVING           STO-SS ON UNIT   1016 AT TIME STEP      2, STRESS PERIOD     46
 UBDSV1 SAVING           STO-SY ON UNIT   1016 AT TIME STEP      2, STRESS PERIOD     46
 UBDSV1 SAVING     FLOW-JA-FACE ON UNIT   1016 AT TIME STEP      2, STRESS PERIOD     46
 UBDSV06 SAVING              RCH IN MODEL TEST_TRANS       PACKAGE TEST_TRANS      CONNECTED TO MODEL TEST_TRANS       PACKAGE RCHA             ON UNIT   1016 AT TIME STEP      2, STRESS PERIOD     46
 UBDSV06 SAVING              CHD IN MODEL TEST_TRANS       PACKAGE TEST_TRANS      CONNECTED TO MODEL TEST_TRANS       PACKAGE CHD              ON UNIT   1016 AT TIME STEP      2, STRESS PERIOD     46

 HEAD WILL BE SAVED ON UNIT 1017 AT END OF TIME STEP    2, STRESS PERIOD   46


  VOLUME BUDGET FOR ENTIRE MODEL AT END OF TIME STEP    2, STRESS PERIOD  46
  ---------------------------------------------------------------------------------------------------

     CUMULATIVE VOLUME      L**3       RATES FOR THIS TIME STEP      L**3/T          PACKAGE NAME    
     ------------------                 ------------------------                     ----------------

           IN:                                      IN:
           ---                                      ---
              STO-SS =          61.4647                STO-SS =       1.7562E-02     STORAGE         
              STO-SY =       39246.9883                STO-SY =          12.2955     STORAGE         
                 RCH =      213757.9100                   RCH =         190.6849     RCHA            
                 CHD =         313.8567                   CHD =           0.0000     CHD             

            TOTAL IN =      253380.2198              TOTAL IN =         202.9980

          OUT:                                     OUT:
          ----                                     ----
              STO-SS =          50.3507                STO-SS =       6.1481E-02     STORAGE         
              STO-SY =       32522.1193                STO-SY =          38.8073     STORAGE         
                 RCH =           0.0000                   RCH =           0.0000     RCHA            
                 CHD =      220809.0244                   CHD =         164.1328     CHD             

           TOTAL OUT =      253381.4944             TOTAL OUT =         203.0015

            IN - OUT =          -1.2747              IN - OUT =      -3.5299E-03

 PERCENT DISCREPANCY =          -0.00     PERCENT DISCREPANCY =          -0.00




         TIME SUMMARY AT END OF TIME STEP    2 IN STRESS PERIOD   46
                    SECONDS     MINUTES      HOURS       DAYS        YEARS
                    -----------------------------------------------------------
   TIME STEP LENGTH 2.59200E+05  4320.0      72.000      3.0000     8.21355E-03
 STRESS PERIOD TIME 5.18400E+05  8640.0      144.00      6.0000     1.64271E-02
         TOTAL TIME 1.14653E+08 1.91088E+06  31848.      1327.0      3.6331    
 UBDSV1 SAVING           STO-SS ON UNIT   1016 AT TIME STEP      3, STRESS PERIOD     46
 UBDSV1 SAVING           STO-SY ON UNIT   1016 AT TIME STEP      3, STRESS PERIOD     46
 UBDSV1 SAVING     FLOW-JA-FACE ON UNIT   1016 AT TIME STEP      3, STRESS PERIOD     46
 UBDSV06 SAVING              RCH IN MODEL TEST_TRANS       PACKAGE TEST_TRANS      CONNECTED TO MODEL TEST_TRANS       PACKAGE RCHA             ON UNIT   1016 AT TIME STEP      3, STRESS PERIOD     46
 UBDSV06 SAVING              CHD IN MODEL TEST_TRANS       PACKAGE TEST_TRANS      CONNECTED TO MODEL TEST_TRANS       PACKAGE CHD              ON UNIT   1016 AT TIME STEP      3, STRESS PERIOD     46

 HEAD WILL BE SAVED ON UNIT 1017 AT END OF TIME STEP    3, STRESS PERIOD   46


  VOLUME BUDGET FOR ENTIRE MODEL AT END OF TIME STEP    3, STRESS PERIOD  46
  ---------------------------------------------------------------------------------------------------

     CUMULATIVE VOLUME      L**3       RATES FOR THIS TIME STEP      L**3/T          PACKAGE NAME    
     ------------------                 ------------------------                     ----------------

           IN:                                      IN:
           ---                                      ---
              STO-SS =          61.4926                STO-SS =       9.2963E-03     STORAGE         
              STO-SY =       39266.4240                STO-SY =           6.4786     STORAGE         
                 RCH =      214329.9646                   RCH =         190.6849     RCHA            
                 CHD =         313.8567                   CHD =           0.0000     CHD             

            TOTAL IN =      253971.7379              TOTAL IN =         197.1727

          OUT:                                     OUT:
          ----                                     ----
              STO-SS =          50.5271                STO-SS =       5.8794E-02     STORAGE         
              STO-SY =       32633.2773                STO-SY =          37.0526     STORAGE         
                 RCH =           0.0000                   RCH =           0.0000     RCHA            
                 CHD =      221289.2093                   CHD =         160.0616     CHD             

           TOTAL OUT =      253973.0137             TOTAL OUT =         197.1731

            IN - OUT =          -1.2758              IN - OUT =      -3.7241E-04

 PERCENT DISCREPANCY =          -0.00     PERCENT DISCREPANCY =          -0.00




         TIME SUMMARY AT END OF TIME STEP    3 IN STRESS PERIOD   46
                    SECONDS     MINUTES      HOURS       DAYS        YEARS
                    -----------------------------------------------------------
   TIME STEP LENGTH 2.59200E+05  4320.0      72.000      3.0000     8.21355E-03
 STRESS PERIOD TIME 7.77600E+05  12960.      216.00      9.0000     2.46407E-02
         TOTAL TIME 1.14912E+08 1.91520E+06  31920.      1330.0      3.6413    
 UBDSV1 SAVING           STO-SS ON UNIT   1016 AT TIME STEP      4, STRESS PERIOD     46
 UBDSV1 SAVING           STO-SY ON UNIT   1016 AT TIME STEP      4, STRESS PERIOD     46
 UBDSV1 SAVING     FLOW-JA-FACE ON UNIT   1016 AT TIME STEP      4, STRESS PERIOD     46
 UBDSV06 SAVING              RCH IN MODEL TEST_TRANS       PACKAGE TEST_TRANS      CONNECTED TO MODEL TEST_TRANS       PACKAGE RCHA             ON UNIT   1016 AT TIME STEP      4, STRESS PERIOD     46
 UBDSV06 SAVING              CHD IN MODEL TEST_TRANS       PACKAGE TEST_TRANS      CONNECTED TO MODEL TEST_TRANS       PACKAGE CHD              ON UNIT   1016 AT TIME STEP      4, STRESS PERIOD     46

 HEAD WILL BE SAVED ON UNIT 1017 AT END OF TIME STEP    4, STRESS PERIOD   46


  VOLUME BUDGET FOR ENTIRE MODEL AT END OF TIME STEP    4, STRESS PERIOD  46
  ---------------------------------------------------------------------------------------------------

     CUMULATIVE VOLUME      L**3       RATES FOR THIS TIME STEP      L**3/T          PACKAGE NAME    
     ------------------                 ------------------------                     ----------------

           IN:                                      IN:
           ---                                      ---
              STO-SS =          61.5073                STO-SS =       4.8791E-03     STORAGE         
              STO-SY =       39276.6097                STO-SY =           3.3952     STORAGE         
                 RCH =      214902.0192                   RCH =         190.6849     RCHA            
                 CHD =         313.8567                   CHD =           0.0000     CHD             

            TOTAL IN =      254553.9928              TOTAL IN =         194.0850

          OUT:                                     OUT:
          ----                                     ----
              STO-SS =          50.6975                STO-SS =       5.6798E-02     STORAGE         
              STO-SY =       32740.5513                STO-SY =          35.7580     STORAGE         
                 RCH =           0.0000                   RCH =           0.0000     RCHA            
                 CHD =      221764.0216                   CHD =         158.2708     CHD             

           TOTAL OUT =      254555.2704             TOTAL OUT =         194.0856

            IN - OUT =          -1.2776              IN - OUT =      -6.0482E-04

 PERCENT DISCREPANCY =          -0.00     PERCENT DISCREPANCY =          -0.00




         TIME SUMMARY AT END OF TIME STEP    4 IN STRESS PERIOD   46
                    SECONDS     MINUTES      HOURS       DAYS        YEARS
                    -----------------------------------------------------------
   TIME STEP LENGTH 2.59200E+05  4320.0      72.000      3.0000     8.21355E-03
 STRESS PERIOD TIME 1.03680E+06  17280.      288.00      12.000     3.28542E-02
         TOTAL TIME 1.15171E+08 1.91952E+06  31992.      1333.0      3.6496    
 UBDSV1 SAVING           STO-SS ON UNIT   1016 AT TIME STEP      5, STRESS PERIOD     46
 UBDSV1 SAVING           STO-SY ON UNIT   1016 AT TIME STEP      5, STRESS PERIOD     46
 UBDSV1 SAVING     FLOW-JA-FACE ON UNIT   1016 AT TIME STEP      5, STRESS PERIOD     46
 UBDSV06 SAVING              RCH IN MODEL TEST_TRANS       PACKAGE TEST_TRANS      CONNECTED TO MODEL TEST_TRANS       PACKAGE RCHA             ON UNIT   1016 AT TIME STEP      5, STRESS PERIOD     46
 UBDSV06 SAVING              CHD IN MODEL TEST_TRANS       PACKAGE TEST_TRANS      CONNECTED TO MODEL TEST_TRANS       PACKAGE CHD              ON UNIT   1016 AT TIME STEP      5, STRESS PERIOD     46

 HEAD WILL BE SAVED ON UNIT 1017 AT END OF TIME STEP    5, STRESS PERIOD   46


  VOLUME BUDGET FOR ENTIRE MODEL AT END OF TIME STEP    5, STRESS PERIOD  46
  ---------------------------------------------------------------------------------------------------

     CUMULATIVE VOLUME      L**3       RATES FOR THIS TIME STEP      L**3/T          PACKAGE NAME    
     ------------------                 ------------------------                     ----------------

           IN:                                      IN:
           ---                                      ---
              STO-SS =          61.5142                STO-SS =       2.2926E-03     STORAGE         
              STO-SY =       39281.4037                STO-SY =           1.5980     STORAGE         
                 RCH =      215474.0738                   RCH =         190.6849     RCHA            
                 CHD =         313.8567                   CHD =           0.0000     CHD             

            TOTAL IN =      255130.8483              TOTAL IN =         192.2852

          OUT:                                     OUT:
          ----                                     ----
              STO-SS =          50.8635                STO-SS =       5.5334E-02     STORAGE         
              STO-SY =       32845.0006                STO-SY =          34.8164     STORAGE         
                 RCH =           0.0000                   RCH =           0.0000     RCHA            
                 CHD =      222236.2646                   CHD =         157.4143     CHD             

           TOTAL OUT =      255132.1286             TOTAL OUT =         192.2861

            IN - OUT =          -1.2803              IN - OUT =      -8.9233E-04

 PERCENT DISCREPANCY =          -0.00     PERCENT DISCREPANCY =          -0.00




         TIME SUMMARY AT END OF TIME STEP    5 IN STRESS PERIOD   46
                    SECONDS     MINUTES      HOURS       DAYS        YEARS
                    -----------------------------------------------------------
   TIME STEP LENGTH 2.59200E+05  4320.0      72.000      3.0000     8.21355E-03
 STRESS PERIOD TIME 1.29600E+06  21600.      360.00      15.000     4.10678E-02
         TOTAL TIME 1.15430E+08 1.92384E+06  32064.      1336.0      3.6578    
 UBDSV1 SAVING           STO-SS ON UNIT   1016 AT TIME STEP      6, STRESS PERIOD     46
 UBDSV1 SAVING           STO-SY ON UNIT   1016 AT TIME STEP      6, STRESS PERIOD     46
 UBDSV1 SAVING     FLOW-JA-FACE ON UNIT   1016 AT TIME STEP      6, STRESS PERIOD     46
 UBDSV06 SAVING              RCH IN MODEL TEST_TRANS       PACKAGE TEST_TRANS      CONNECTED TO MODEL TEST_TRANS       PACKAGE RCHA             ON UNIT   1016 AT TIME STEP      6, STRESS PERIOD     46
 UBDSV06 SAVING              CHD IN MODEL TEST_TRANS       PACKAGE TEST_TRANS      CONNECTED TO MODEL TEST_TRANS       PACKAGE CHD              ON UNIT   1016 AT TIME STEP      6, STRESS PERIOD     46

 HEAD WILL BE SAVED ON UNIT 1017 AT END OF TIME STEP    6, STRESS PERIOD   46


  VOLUME BUDGET FOR ENTIRE MODEL AT END OF TIME STEP    6, STRESS PERIOD  46
  ---------------------------------------------------------------------------------------------------

     CUMULATIVE VOLUME      L**3       RATES FOR THIS TIME STEP      L**3/T          PACKAGE NAME    
     ------------------                 ------------------------                     ----------------

           IN:                                      IN:
           ---                                      ---
              STO-SS =          61.5167                STO-SS =       8.3890E-04     STORAGE         
              STO-SY =       39283.1668                STO-SY =           0.5877     STORAGE         
                 RCH =      216046.1283                   RCH =         190.6849     RCHA            
                 CHD =         313.8567                   CHD =           0.0000     CHD             

            TOTAL IN =      255704.6685              TOTAL IN =         191.2734

          OUT:                                     OUT:
          ----                                     ----
              STO-SS =          51.0265                STO-SS =       5.4364E-02     STORAGE         
              STO-SY =       32947.6047                STO-SY =          34.2014     STORAGE         
                 RCH =           0.0000                   RCH =           0.0000     RCHA            
                 CHD =      222707.3205                   CHD =         157.0186     CHD             

           TOTAL OUT =      255705.9518             TOTAL OUT =         191.2744

            IN - OUT =          -1.2832              IN - OUT =      -9.9488E-04

 PERCENT DISCREPANCY =          -0.00     PERCENT DISCREPANCY =          -0.00




         TIME SUMMARY AT END OF TIME STEP    6 IN STRESS PERIOD   46
                    SECONDS     MINUTES      HOURS       DAYS        YEARS
                    -----------------------------------------------------------
   TIME STEP LENGTH 2.59200E+05  4320.0      72.000      3.0000     8.21355E-03
 STRESS PERIOD TIME 1.55520E+06  25920.      432.00      18.000     4.92813E-02
         TOTAL TIME 1.15690E+08 1.92816E+06  32136.      1339.0      3.6660    
 UBDSV1 SAVING           STO-SS ON UNIT   1016 AT TIME STEP      7, STRESS PERIOD     46
 UBDSV1 SAVING           STO-SY ON UNIT   1016 AT TIME STEP      7, STRESS PERIOD     46
 UBDSV1 SAVING     FLOW-JA-FACE ON UNIT   1016 AT TIME STEP      7, STRESS PERIOD     46
 UBDSV06 SAVING              RCH IN MODEL TEST_TRANS       PACKAGE TEST_TRANS      CONNECTED TO MODEL TEST_TRANS       PACKAGE RCHA             ON UNIT   1016 AT TIME STEP      7, STRESS PERIOD     46
 UBDSV06 SAVING              CHD IN MODEL TEST_TRANS       PACKAGE TEST_TRANS      CONNECTED TO MODEL TEST_TRANS       PACKAGE CHD              ON UNIT   1016 AT TIME STEP      7, STRESS PERIOD     46

 HEAD WILL BE SAVED ON UNIT 1017 AT END OF TIME STEP    7, STRESS PERIOD   46


  VOLUME BUDGET FOR ENTIRE MODEL AT END OF TIME STEP    7, STRESS PERIOD  46
  ---------------------------------------------------------------------------------------------------

     CUMULATIVE VOLUME      L**3       RATES FOR THIS TIME STEP      L**3/T          PACKAGE NAME    
     ------------------                 ------------------------                     ----------------

           IN:                                      IN:
           ---                                      ---
              STO-SS =          61.5171                STO-SS =       1.4282E-04     STORAGE         
              STO-SY =       39283.4697                STO-SY =           0.1010     STORAGE         
                 RCH =      216618.1829                   RCH =         190.6849     RCHA            
                 CHD =         313.8567                   CHD =           0.0000     CHD             

            TOTAL IN =      256277.0264              TOTAL IN =         190.7860

          OUT:                                     OUT:
          ----                                     ----
              STO-SS =          51.1879                STO-SS =       5.3774E-02     STORAGE         
              STO-SY =       33049.1281                STO-SY =          33.8411     STORAGE         
                 RCH =           0.0000                   RCH =           0.0000     RCHA            
                 CHD =      223178.0130                   CHD =         156.8975     CHD             

           TOTAL OUT =      256278.3290             TOTAL OUT =         190.7924

            IN - OUT =          -1.3025              IN - OUT =      -6.4280E-03

 PERCENT DISCREPANCY =          -0.00     PERCENT DISCREPANCY =          -0.00




         TIME SUMMARY AT END OF TIME STEP    7 IN STRESS PERIOD   46
                    SECONDS     MINUTES      HOURS       DAYS        YEARS
                    -----------------------------------------------------------
   TIME STEP LENGTH 2.59200E+05  4320.0      72.000      3.0000     8.21355E-03
 STRESS PERIOD TIME 1.81440E+06  30240.      504.00      21.000     5.74949E-02
         TOTAL TIME 1.15949E+08 1.93248E+06  32208.      1342.0      3.6742    
 UBDSV1 SAVING           STO-SS ON UNIT   1016 AT TIME STEP      8, STRESS PERIOD     46
 UBDSV1 SAVING           STO-SY ON UNIT   1016 AT TIME STEP      8, STRESS PERIOD     46
 UBDSV1 SAVING     FLOW-JA-FACE ON UNIT   1016 AT TIME STEP      8, STRESS PERIOD     46
 UBDSV06 SAVING              RCH IN MODEL TEST_TRANS       PACKAGE TEST_TRANS      CONNECTED TO MODEL TEST_TRANS       PACKAGE RCHA             ON UNIT   1016 AT TIME STEP      8, STRESS PERIOD     46
 UBDSV06 SAVING              CHD IN MODEL TEST_TRANS       PACKAGE TEST_TRANS      CONNECTED TO MODEL TEST_TRANS       PACKAGE CHD              ON UNIT   1016 AT TIME STEP      8, STRESS PERIOD     46

 HEAD WILL BE SAVED ON UNIT 1017 AT END OF TIME STEP    8, STRESS PERIOD   46


  VOLUME BUDGET FOR ENTIRE MODEL AT END OF TIME STEP    8, STRESS PERIOD  46
  ---------------------------------------------------------------------------------------------------

     CUMULATIVE VOLUME      L**3       RATES FOR THIS TIME STEP      L**3/T          PACKAGE NAME    
     ------------------                 ------------------------                     ----------------

           IN:                                      IN:
           ---                                      ---
              STO-SS =          61.5171                STO-SS =           0.0000     STORAGE         
              STO-SY =       39283.4697                STO-SY =           0.0000     STORAGE         
                 RCH =      217190.2375                   RCH =         190.6849     RCHA            
                 CHD =         313.8567                   CHD =           0.0000     CHD             

            TOTAL IN =      256849.0810              TOTAL IN =         190.6849

          OUT:                                     OUT:
          ----                                     ----
              STO-SS =          51.3484                STO-SS =       5.3502E-02     STORAGE         
              STO-SY =       33150.2229                STO-SY =          33.6983     STORAGE         
                 RCH =           0.0000                   RCH =           0.0000     RCHA            
                 CHD =      223648.8451                   CHD =         156.9440     CHD             

           TOTAL OUT =      256850.4164             TOTAL OUT =         190.6958

            IN - OUT =          -1.3354              IN - OUT =      -1.0948E-02

 PERCENT DISCREPANCY =          -0.00     PERCENT DISCREPANCY =          -0.01




         TIME SUMMARY AT END OF TIME STEP    8 IN STRESS PERIOD   46
                    SECONDS     MINUTES      HOURS       DAYS        YEARS
                    -----------------------------------------------------------
   TIME STEP LENGTH 2.59200E+05  4320.0      72.000      3.0000     8.21355E-03
 STRESS PERIOD TIME 2.07360E+06  34560.      576.00      24.000     6.57084E-02
         TOTAL TIME 1.16208E+08 1.93680E+06  32280.      1345.0      3.6824    
 UBDSV1 SAVING           STO-SS ON UNIT   1016 AT TIME STEP      9, STRESS PERIOD     46
 UBDSV1 SAVING           STO-SY ON UNIT   1016 AT TIME STEP      9, STRESS PERIOD     46
 UBDSV1 SAVING     FLOW-JA-FACE ON UNIT   1016 AT TIME STEP      9, STRESS PERIOD     46
 UBDSV06 SAVING              RCH IN MODEL TEST_TRANS       PACKAGE TEST_TRANS      CONNECTED TO MODEL TEST_TRANS       PACKAGE RCHA             ON UNIT   1016 AT TIME STEP      9, STRESS PERIOD     46
 UBDSV06 SAVING              CHD IN MODEL TEST_TRANS       PACKAGE TEST_TRANS      CONNECTED TO MODEL TEST_TRANS       PACKAGE CHD              ON UNIT   1016 AT TIME STEP      9, STRESS PERIOD     46

 HEAD WILL BE SAVED ON UNIT 1017 AT END OF TIME STEP    9, STRESS PERIOD   46


  VOLUME BUDGET FOR ENTIRE MODEL AT END OF TIME STEP    9, STRESS PERIOD  46
  ---------------------------------------------------------------------------------------------------

     CUMULATIVE VOLUME      L**3       RATES FOR THIS TIME STEP      L**3/T          PACKAGE NAME    
     ------------------                 ------------------------                     ----------------

           IN:                                      IN:
           ---                                      ---
              STO-SS =          61.5171                STO-SS =           0.0000     STORAGE         
              STO-SY =       39283.4697                STO-SY =           0.0000     STORAGE         
                 RCH =      217762.2921                   RCH =         190.6849     RCHA            
                 CHD =         313.8567                   CHD =           0.0000     CHD             

            TOTAL IN =      257421.1356              TOTAL IN =         190.6849

          OUT:                                     OUT:
          ----                                     ----
              STO-SS =          51.5080                STO-SS =       5.3215E-02     STORAGE         
              STO-SY =       33250.8557                STO-SY =          33.5443     STORAGE         
                 RCH =           0.0000                   RCH =           0.0000     RCHA            
                 CHD =      224120.1472                   CHD =         157.1007     CHD             

           TOTAL OUT =      257422.5110             TOTAL OUT =         190.6982

            IN - OUT =          -1.3754              IN - OUT =      -1.3327E-02

 PERCENT DISCREPANCY =          -0.00     PERCENT DISCREPANCY =          -0.01




         TIME SUMMARY AT END OF TIME STEP    9 IN STRESS PERIOD   46
                    SECONDS     MINUTES      HOURS       DAYS        YEARS
                    -----------------------------------------------------------
   TIME STEP LENGTH 2.59200E+05  4320.0      72.000      3.0000     8.21355E-03
 STRESS PERIOD TIME 2.33280E+06  38880.      648.00      27.000     7.39220E-02
         TOTAL TIME 1.16467E+08 1.94112E+06  32352.      1348.0      3.6906    
 UBDSV1 SAVING           STO-SS ON UNIT   1016 AT TIME STEP     10, STRESS PERIOD     46
 UBDSV1 SAVING           STO-SY ON UNIT   1016 AT TIME STEP     10, STRESS PERIOD     46
 UBDSV1 SAVING     FLOW-JA-FACE ON UNIT   1016 AT TIME STEP     10, STRESS PERIOD     46
 UBDSV06 SAVING              RCH IN MODEL TEST_TRANS       PACKAGE TEST_TRANS      CONNECTED TO MODEL TEST_TRANS       PACKAGE RCHA             ON UNIT   1016 AT TIME STEP     10, STRESS PERIOD     46
 UBDSV06 SAVING              CHD IN MODEL TEST_TRANS       PACKAGE TEST_TRANS      CONNECTED TO MODEL TEST_TRANS       PACKAGE CHD              ON UNIT   1016 AT TIME STEP     10, STRESS PERIOD     46

 HEAD WILL BE SAVED ON UNIT 1017 AT END OF TIME STEP   10, STRESS PERIOD   46


  VOLUME BUDGET FOR ENTIRE MODEL AT END OF TIME STEP   10, STRESS PERIOD  46
  ---------------------------------------------------------------------------------------------------

     CUMULATIVE VOLUME      L**3       RATES FOR THIS TIME STEP      L**3/T          PACKAGE NAME    
     ------------------                 ------------------------                     ----------------

           IN:                                      IN:
           ---                                      ---
              STO-SS =          61.5171                STO-SS =           0.0000     STORAGE         
              STO-SY =       39283.4697                STO-SY =           0.0000     STORAGE         
                 RCH =      218334.3467                   RCH =         190.6849     RCHA            
                 CHD =         313.8567                   CHD =           0.0000     CHD             

            TOTAL IN =      257993.1902              TOTAL IN =         190.6849

          OUT:                                     OUT:
          ----                                     ----
              STO-SS =          51.6665                STO-SS =       5.2826E-02     STORAGE         
              STO-SY =       33350.8061                STO-SY =          33.3168     STORAGE         
                 RCH =           0.0000                   RCH =           0.0000     RCHA            
                 CHD =      224592.1429                   CHD =         157.3319     CHD             

           TOTAL OUT =      257994.6155             TOTAL OUT =         190.7015

            IN - OUT =          -1.4253              IN - OUT =      -1.6650E-02

 PERCENT DISCREPANCY =          -0.00     PERCENT DISCREPANCY =          -0.01




         TIME SUMMARY AT END OF TIME STEP   10 IN STRESS PERIOD   46
                    SECONDS     MINUTES      HOURS       DAYS        YEARS
                    -----------------------------------------------------------
   TIME STEP LENGTH 2.59200E+05  4320.0      72.000      3.0000     8.21355E-03
 STRESS PERIOD TIME 2.59200E+06  43200.      720.00      30.000     8.21355E-02
         TOTAL TIME 1.16726E+08 1.94544E+06  32424.      1351.0      3.6988    

 OUTPUT CONTROL FOR STRESS PERIOD 47 IS REPEATED USING SETTINGS FROM A PREVIOUS STRESS PERIOD.


 STRESS PERIOD 47 IS TRANSIENT


                 RECHARGE =  0.2465750E-02
 UBDSV1 SAVING           STO-SS ON UNIT   1016 AT TIME STEP      1, STRESS PERIOD     47
 UBDSV1 SAVING           STO-SY ON UNIT   1016 AT TIME STEP      1, STRESS PERIOD     47
 UBDSV1 SAVING     FLOW-JA-FACE ON UNIT   1016 AT TIME STEP      1, STRESS PERIOD     47
 UBDSV06 SAVING              RCH IN MODEL TEST_TRANS       PACKAGE TEST_TRANS      CONNECTED TO MODEL TEST_TRANS       PACKAGE RCHA             ON UNIT   1016 AT TIME STEP      1, STRESS PERIOD     47
 UBDSV06 SAVING              CHD IN MODEL TEST_TRANS       PACKAGE TEST_TRANS      CONNECTED TO MODEL TEST_TRANS       PACKAGE CHD              ON UNIT   1016 AT TIME STEP      1, STRESS PERIOD     47

 HEAD WILL BE SAVED ON UNIT 1017 AT END OF TIME STEP    1, STRESS PERIOD   47


  VOLUME BUDGET FOR ENTIRE MODEL AT END OF TIME STEP    1, STRESS PERIOD  47
  ---------------------------------------------------------------------------------------------------

     CUMULATIVE VOLUME      L**3       RATES FOR THIS TIME STEP      L**3/T          PACKAGE NAME    
     ------------------                 ------------------------                     ----------------

           IN:                                      IN:
           ---                                      ---
              STO-SS =          61.6407                STO-SS =       4.1210E-02     STORAGE         
              STO-SY =       39371.1025                STO-SY =          29.2109     STORAGE         
                 RCH =      218977.9074                   RCH =         214.5203     RCHA            
                 CHD =         313.8567                   CHD =           0.0000     CHD             

            TOTAL IN =      258724.5073              TOTAL IN =         243.7724

          OUT:                                     OUT:
          ----                                     ----
              STO-SS =          51.8989                STO-SS =       7.7468E-02     STORAGE         
              STO-SY =       33496.9876                STO-SY =          48.7272     STORAGE         
                 RCH =           0.0000                   RCH =           0.0000     RCHA            
                 CHD =      225177.0614                   CHD =         194.9728     CHD             

           TOTAL OUT =      258725.9480             TOTAL OUT =         243.7775

            IN - OUT =          -1.4407              IN - OUT =      -5.1310E-03

 PERCENT DISCREPANCY =          -0.00     PERCENT DISCREPANCY =          -0.00




         TIME SUMMARY AT END OF TIME STEP    1 IN STRESS PERIOD   47
                    SECONDS     MINUTES      HOURS       DAYS        YEARS
                    -----------------------------------------------------------
   TIME STEP LENGTH 2.59200E+05  4320.0      72.000      3.0000     8.21355E-03
 STRESS PERIOD TIME 2.59200E+05  4320.0      72.000      3.0000     8.21355E-03
         TOTAL TIME 1.16986E+08 1.94976E+06  32496.      1354.0      3.7070    
 UBDSV1 SAVING           STO-SS ON UNIT   1016 AT TIME STEP      2, STRESS PERIOD     47
 UBDSV1 SAVING           STO-SY ON UNIT   1016 AT TIME STEP      2, STRESS PERIOD     47
 UBDSV1 SAVING     FLOW-JA-FACE ON UNIT   1016 AT TIME STEP      2, STRESS PERIOD     47
 UBDSV06 SAVING              RCH IN MODEL TEST_TRANS       PACKAGE TEST_TRANS      CONNECTED TO MODEL TEST_TRANS       PACKAGE RCHA             ON UNIT   1016 AT TIME STEP      2, STRESS PERIOD     47
 UBDSV06 SAVING              CHD IN MODEL TEST_TRANS       PACKAGE TEST_TRANS      CONNECTED TO MODEL TEST_TRANS       PACKAGE CHD              ON UNIT   1016 AT TIME STEP      2, STRESS PERIOD     47

 HEAD WILL BE SAVED ON UNIT 1017 AT END OF TIME STEP    2, STRESS PERIOD   47


  VOLUME BUDGET FOR ENTIRE MODEL AT END OF TIME STEP    2, STRESS PERIOD  47
  ---------------------------------------------------------------------------------------------------

     CUMULATIVE VOLUME      L**3       RATES FOR THIS TIME STEP      L**3/T          PACKAGE NAME    
     ------------------                 ------------------------                     ----------------

           IN:                                      IN:
           ---                                      ---
              STO-SS =          61.7007                STO-SS =       1.9982E-02     STORAGE         
              STO-SY =       39413.2496                STO-SY =          14.0490     STORAGE         
                 RCH =      219621.4682                   RCH =         214.5203     RCHA            
                 CHD =         313.8567                   CHD =           0.0000     CHD             

            TOTAL IN =      259410.2751              TOTAL IN =         228.5893

          OUT:                                     OUT:
          ----                                     ----
              STO-SS =          52.1188                STO-SS =       7.3287E-02     STORAGE         
              STO-SY =       33634.9335                STO-SY =          45.9819     STORAGE         
                 RCH =           0.0000                   RCH =           0.0000     RCHA            
                 CHD =      225724.6782                   CHD =         182.5389     CHD             

           TOTAL OUT =      259411.7304             TOTAL OUT =         228.5942

            IN - OUT =          -1.4553              IN - OUT =      -4.8716E-03

 PERCENT DISCREPANCY =          -0.00     PERCENT DISCREPANCY =          -0.00




         TIME SUMMARY AT END OF TIME STEP    2 IN STRESS PERIOD   47
                    SECONDS     MINUTES      HOURS       DAYS        YEARS
                    -----------------------------------------------------------
   TIME STEP LENGTH 2.59200E+05  4320.0      72.000      3.0000     8.21355E-03
 STRESS PERIOD TIME 5.18400E+05  8640.0      144.00      6.0000     1.64271E-02
         TOTAL TIME 1.17245E+08 1.95408E+06  32568.      1357.0      3.7153    
 UBDSV1 SAVING           STO-SS ON UNIT   1016 AT TIME STEP      3, STRESS PERIOD     47
 UBDSV1 SAVING           STO-SY ON UNIT   1016 AT TIME STEP      3, STRESS PERIOD     47
 UBDSV1 SAVING     FLOW-JA-FACE ON UNIT   1016 AT TIME STEP      3, STRESS PERIOD     47
 UBDSV06 SAVING              RCH IN MODEL TEST_TRANS       PACKAGE TEST_TRANS      CONNECTED TO MODEL TEST_TRANS       PACKAGE RCHA             ON UNIT   1016 AT TIME STEP      3, STRESS PERIOD     47
 UBDSV06 SAVING              CHD IN MODEL TEST_TRANS       PACKAGE TEST_TRANS      CONNECTED TO MODEL TEST_TRANS       PACKAGE CHD              ON UNIT   1016 AT TIME STEP      3, STRESS PERIOD     47

 HEAD WILL BE SAVED ON UNIT 1017 AT END OF TIME STEP    3, STRESS PERIOD   47


  VOLUME BUDGET FOR ENTIRE MODEL AT END OF TIME STEP    3, STRESS PERIOD  47
  ---------------------------------------------------------------------------------------------------

     CUMULATIVE VOLUME      L**3       RATES FOR THIS TIME STEP      L**3/T          PACKAGE NAME    
     ------------------                 ------------------------                     ----------------

           IN:                                      IN:
           ---                                      ---
              STO-SS =          61.7330                STO-SS =       1.0760E-02     STORAGE         
              STO-SY =       39435.8332                STO-SY =           7.5279     STORAGE         
                 RCH =      220265.0289                   RCH =         214.5203     RCHA            
                 CHD =         313.8567                   CHD =           0.0000     CHD             

            TOTAL IN =      260076.4517              TOTAL IN =         222.0589

          OUT:                                     OUT:
          ----                                     ----
              STO-SS =          52.3295                STO-SS =       7.0239E-02     STORAGE         
              STO-SY =       33766.9325                STO-SY =          43.9997     STORAGE         
                 RCH =           0.0000                   RCH =           0.0000     RCHA            
                 CHD =      226258.6491                   CHD =         177.9903     CHD             

           TOTAL OUT =      260077.9111             TOTAL OUT =         222.0602

            IN - OUT =          -1.4594              IN - OUT =      -1.3564E-03

 PERCENT DISCREPANCY =          -0.00     PERCENT DISCREPANCY =          -0.00




         TIME SUMMARY AT END OF TIME STEP    3 IN STRESS PERIOD   47
                    SECONDS     MINUTES      HOURS       DAYS        YEARS
                    -----------------------------------------------------------
   TIME STEP LENGTH 2.59200E+05  4320.0      72.000      3.0000     8.21355E-03
 STRESS PERIOD TIME 7.77600E+05  12960.      216.00      9.0000     2.46407E-02
         TOTAL TIME 1.17504E+08 1.95840E+06  32640.      1360.0      3.7235    
 UBDSV1 SAVING           STO-SS ON UNIT   1016 AT TIME STEP      4, STRESS PERIOD     47
 UBDSV1 SAVING           STO-SY ON UNIT   1016 AT TIME STEP      4, STRESS PERIOD     47
 UBDSV1 SAVING     FLOW-JA-FACE ON UNIT   1016 AT TIME STEP      4, STRESS PERIOD     47
 UBDSV06 SAVING              RCH IN MODEL TEST_TRANS       PACKAGE TEST_TRANS      CONNECTED TO MODEL TEST_TRANS       PACKAGE RCHA             ON UNIT   1016 AT TIME STEP      4, STRESS PERIOD     47
 UBDSV06 SAVING              CHD IN MODEL TEST_TRANS       PACKAGE TEST_TRANS      CONNECTED TO MODEL TEST_TRANS       PACKAGE CHD              ON UNIT   1016 AT TIME STEP      4, STRESS PERIOD     47

 HEAD WILL BE SAVED ON UNIT 1017 AT END OF TIME STEP    4, STRESS PERIOD   47


  VOLUME BUDGET FOR ENTIRE MODEL AT END OF TIME STEP    4, STRESS PERIOD  47
  ---------------------------------------------------------------------------------------------------

     CUMULATIVE VOLUME      L**3       RATES FOR THIS TIME STEP      L**3/T          PACKAGE NAME    
     ------------------                 ------------------------                     ----------------

           IN:                                      IN:
           ---                                      ---
              STO-SS =          61.7502                STO-SS =       5.7340E-03     STORAGE         
              STO-SY =       39447.8492                STO-SY =           4.0054     STORAGE         
                 RCH =      220908.5897                   RCH =         214.5203     RCHA            
                 CHD =         313.8567                   CHD =           0.0000     CHD             

            TOTAL IN =      260732.0457              TOTAL IN =         218.5313

          OUT:                                     OUT:
          ----                                     ----
              STO-SS =          52.5333                STO-SS =       6.7950E-02     STORAGE         
              STO-SY =       33894.4968                STO-SY =          42.5214     STORAGE         
                 RCH =           0.0000                   RCH =           0.0000     RCHA            
                 CHD =      226786.4771                   CHD =         175.9427     CHD             

           TOTAL OUT =      260733.5072             TOTAL OUT =         218.5320

            IN - OUT =          -1.4615              IN - OUT =      -7.0050E-04

 PERCENT DISCREPANCY =          -0.00     PERCENT DISCREPANCY =          -0.00




         TIME SUMMARY AT END OF TIME STEP    4 IN STRESS PERIOD   47
                    SECONDS     MINUTES      HOURS       DAYS        YEARS
                    -----------------------------------------------------------
   TIME STEP LENGTH 2.59200E+05  4320.0      72.000      3.0000     8.21355E-03
 STRESS PERIOD TIME 1.03680E+06  17280.      288.00      12.000     3.28542E-02
         TOTAL TIME 1.17763E+08 1.96272E+06  32712.      1363.0      3.7317    
 UBDSV1 SAVING           STO-SS ON UNIT   1016 AT TIME STEP      5, STRESS PERIOD     47
 UBDSV1 SAVING           STO-SY ON UNIT   1016 AT TIME STEP      5, STRESS PERIOD     47
 UBDSV1 SAVING     FLOW-JA-FACE ON UNIT   1016 AT TIME STEP      5, STRESS PERIOD     47
 UBDSV06 SAVING              RCH IN MODEL TEST_TRANS       PACKAGE TEST_TRANS      CONNECTED TO MODEL TEST_TRANS       PACKAGE RCHA             ON UNIT   1016 AT TIME STEP      5, STRESS PERIOD     47
 UBDSV06 SAVING              CHD IN MODEL TEST_TRANS       PACKAGE TEST_TRANS      CONNECTED TO MODEL TEST_TRANS       PACKAGE CHD              ON UNIT   1016 AT TIME STEP      5, STRESS PERIOD     47

 HEAD WILL BE SAVED ON UNIT 1017 AT END OF TIME STEP    5, STRESS PERIOD   47


  VOLUME BUDGET FOR ENTIRE MODEL AT END OF TIME STEP    5, STRESS PERIOD  47
  ---------------------------------------------------------------------------------------------------

     CUMULATIVE VOLUME      L**3       RATES FOR THIS TIME STEP      L**3/T          PACKAGE NAME    
     ------------------                 ------------------------                     ----------------

           IN:                                      IN:
           ---                                      ---
              STO-SS =          61.7583                STO-SS =       2.7300E-03     STORAGE         
              STO-SY =       39453.5821                STO-SY =           1.9109     STORAGE         
                 RCH =      221552.1504                   RCH =         214.5203     RCHA            
                 CHD =         313.8567                   CHD =           0.0000     CHD             

            TOTAL IN =      261381.3475              TOTAL IN =         216.4339

          OUT:                                     OUT:
          ----                                     ----
              STO-SS =          52.7320                STO-SS =       6.6238E-02     STORAGE         
              STO-SY =       34018.7688                STO-SY =          41.4240     STORAGE         
                 RCH =           0.0000                   RCH =           0.0000     RCHA            
                 CHD =      227311.3114                   CHD =         174.9448     CHD             

           TOTAL OUT =      261382.8123             TOTAL OUT =         216.4350

            IN - OUT =          -1.4648              IN - OUT =      -1.1088E-03

 PERCENT DISCREPANCY =          -0.00     PERCENT DISCREPANCY =          -0.00




         TIME SUMMARY AT END OF TIME STEP    5 IN STRESS PERIOD   47
                    SECONDS     MINUTES      HOURS       DAYS        YEARS
                    -----------------------------------------------------------
   TIME STEP LENGTH 2.59200E+05  4320.0      72.000      3.0000     8.21355E-03
 STRESS PERIOD TIME 1.29600E+06  21600.      360.00      15.000     4.10678E-02
         TOTAL TIME 1.18022E+08 1.96704E+06  32784.      1366.0      3.7399    
 UBDSV1 SAVING           STO-SS ON UNIT   1016 AT TIME STEP      6, STRESS PERIOD     47
 UBDSV1 SAVING           STO-SY ON UNIT   1016 AT TIME STEP      6, STRESS PERIOD     47
 UBDSV1 SAVING     FLOW-JA-FACE ON UNIT   1016 AT TIME STEP      6, STRESS PERIOD     47
 UBDSV06 SAVING              RCH IN MODEL TEST_TRANS       PACKAGE TEST_TRANS      CONNECTED TO MODEL TEST_TRANS       PACKAGE RCHA             ON UNIT   1016 AT TIME STEP      6, STRESS PERIOD     47
 UBDSV06 SAVING              CHD IN MODEL TEST_TRANS       PACKAGE TEST_TRANS      CONNECTED TO MODEL TEST_TRANS       PACKAGE CHD              ON UNIT   1016 AT TIME STEP      6, STRESS PERIOD     47

 HEAD WILL BE SAVED ON UNIT 1017 AT END OF TIME STEP    6, STRESS PERIOD   47


  VOLUME BUDGET FOR ENTIRE MODEL AT END OF TIME STEP    6, STRESS PERIOD  47
  ---------------------------------------------------------------------------------------------------

     CUMULATIVE VOLUME      L**3       RATES FOR THIS TIME STEP      L**3/T          PACKAGE NAME    
     ------------------                 ------------------------                     ----------------

           IN:                                      IN:
           ---                                      ---
              STO-SS =          61.7614                STO-SS =       1.0130E-03     STORAGE         
              STO-SY =       39455.7212                STO-SY =           0.7131     STORAGE         
                 RCH =      222195.7112                   RCH =         214.5203     RCHA            
                 CHD =         313.8567                   CHD =           0.0000     CHD             

            TOTAL IN =      262027.0504              TOTAL IN =         215.2343

          OUT:                                     OUT:
          ----                                     ----
              STO-SS =          52.9273                STO-SS =       6.5072E-02     STORAGE         
              STO-SY =       34140.8345                STO-SY =          40.6886     STORAGE         
                 RCH =           0.0000                   RCH =           0.0000     RCHA            
                 CHD =      227834.7577                   CHD =         174.4821     CHD             

           TOTAL OUT =      262028.5195             TOTAL OUT =         215.2357

            IN - OUT =          -1.4691              IN - OUT =      -1.4215E-03

 PERCENT DISCREPANCY =          -0.00     PERCENT DISCREPANCY =          -0.00




         TIME SUMMARY AT END OF TIME STEP    6 IN STRESS PERIOD   47
                    SECONDS     MINUTES      HOURS       DAYS        YEARS
                    -----------------------------------------------------------
   TIME STEP LENGTH 2.59200E+05  4320.0      72.000      3.0000     8.21355E-03
 STRESS PERIOD TIME 1.55520E+06  25920.      432.00      18.000     4.92813E-02
         TOTAL TIME 1.18282E+08 1.97136E+06  32856.      1369.0      3.7481    
 UBDSV1 SAVING           STO-SS ON UNIT   1016 AT TIME STEP      7, STRESS PERIOD     47
 UBDSV1 SAVING           STO-SY ON UNIT   1016 AT TIME STEP      7, STRESS PERIOD     47
 UBDSV1 SAVING     FLOW-JA-FACE ON UNIT   1016 AT TIME STEP      7, STRESS PERIOD     47
 UBDSV06 SAVING              RCH IN MODEL TEST_TRANS       PACKAGE TEST_TRANS      CONNECTED TO MODEL TEST_TRANS       PACKAGE RCHA             ON UNIT   1016 AT TIME STEP      7, STRESS PERIOD     47
 UBDSV06 SAVING              CHD IN MODEL TEST_TRANS       PACKAGE TEST_TRANS      CONNECTED TO MODEL TEST_TRANS       PACKAGE CHD              ON UNIT   1016 AT TIME STEP      7, STRESS PERIOD     47

 HEAD WILL BE SAVED ON UNIT 1017 AT END OF TIME STEP    7, STRESS PERIOD   47


  VOLUME BUDGET FOR ENTIRE MODEL AT END OF TIME STEP    7, STRESS PERIOD  47
  ---------------------------------------------------------------------------------------------------

     CUMULATIVE VOLUME      L**3       RATES FOR THIS TIME STEP      L**3/T          PACKAGE NAME    
     ------------------                 ------------------------                     ----------------

           IN:                                      IN:
           ---                                      ---
              STO-SS =          61.7620                STO-SS =       1.9386E-04     STORAGE         
              STO-SY =       39456.1348                STO-SY =           0.1379     STORAGE         
                 RCH =      222839.2719                   RCH =         214.5203     RCHA            
                 CHD =         313.8567                   CHD =           0.0000     CHD             

            TOTAL IN =      262671.0253              TOTAL IN =         214.6583

          OUT:                                     OUT:
          ----                                     ----
              STO-SS =          53.1204                STO-SS =       6.4391E-02     STORAGE         
              STO-SY =       34261.6644                STO-SY =          40.2766     STORAGE         
                 RCH =           0.0000                   RCH =           0.0000     RCHA            
                 CHD =      228357.7336                   CHD =         174.3253     CHD             

           TOTAL OUT =      262672.5185             TOTAL OUT =         214.6663

            IN - OUT =          -1.4931              IN - OUT =      -8.0226E-03

 PERCENT DISCREPANCY =          -0.00     PERCENT DISCREPANCY =          -0.00




         TIME SUMMARY AT END OF TIME STEP    7 IN STRESS PERIOD   47
                    SECONDS     MINUTES      HOURS       DAYS        YEARS
                    -----------------------------------------------------------
   TIME STEP LENGTH 2.59200E+05  4320.0      72.000      3.0000     8.21355E-03
 STRESS PERIOD TIME 1.81440E+06  30240.      504.00      21.000     5.74949E-02
         TOTAL TIME 1.18541E+08 1.97568E+06  32928.      1372.0      3.7563    
 UBDSV1 SAVING           STO-SS ON UNIT   1016 AT TIME STEP      8, STRESS PERIOD     47
 UBDSV1 SAVING           STO-SY ON UNIT   1016 AT TIME STEP      8, STRESS PERIOD     47
 UBDSV1 SAVING     FLOW-JA-FACE ON UNIT   1016 AT TIME STEP      8, STRESS PERIOD     47
 UBDSV06 SAVING              RCH IN MODEL TEST_TRANS       PACKAGE TEST_TRANS      CONNECTED TO MODEL TEST_TRANS       PACKAGE RCHA             ON UNIT   1016 AT TIME STEP      8, STRESS PERIOD     47
 UBDSV06 SAVING              CHD IN MODEL TEST_TRANS       PACKAGE TEST_TRANS      CONNECTED TO MODEL TEST_TRANS       PACKAGE CHD              ON UNIT   1016 AT TIME STEP      8, STRESS PERIOD     47

 HEAD WILL BE SAVED ON UNIT 1017 AT END OF TIME STEP    8, STRESS PERIOD   47


  VOLUME BUDGET FOR ENTIRE MODEL AT END OF TIME STEP    8, STRESS PERIOD  47
  ---------------------------------------------------------------------------------------------------

     CUMULATIVE VOLUME      L**3       RATES FOR THIS TIME STEP      L**3/T          PACKAGE NAME    
     ------------------                 ------------------------                     ----------------

           IN:                                      IN:
           ---                                      ---
              STO-SS =          61.7620                STO-SS =           0.0000     STORAGE         
              STO-SY =       39456.1348                STO-SY =           0.0000     STORAGE         
                 RCH =      223482.8327                   RCH =         214.5203     RCHA            
                 CHD =         313.8567                   CHD =           0.0000     CHD             

            TOTAL IN =      263314.5861              TOTAL IN =         214.5203

          OUT:                                     OUT:
          ----                                     ----
              STO-SS =          53.3126                STO-SS =       6.4048E-02     STORAGE         
              STO-SY =       34381.9580                STO-SY =          40.0979     STORAGE         
                 RCH =           0.0000                   RCH =           0.0000     RCHA            
                 CHD =      228880.8481                   CHD =         174.3715     CHD             

           TOTAL OUT =      263316.1187             TOTAL OUT =         214.5334

            IN - OUT =          -1.5326              IN - OUT =      -1.3161E-02

 PERCENT DISCREPANCY =          -0.00     PERCENT DISCREPANCY =          -0.01




         TIME SUMMARY AT END OF TIME STEP    8 IN STRESS PERIOD   47
                    SECONDS     MINUTES      HOURS       DAYS        YEARS
                    -----------------------------------------------------------
   TIME STEP LENGTH 2.59200E+05  4320.0      72.000      3.0000     8.21355E-03
 STRESS PERIOD TIME 2.07360E+06  34560.      576.00      24.000     6.57084E-02
         TOTAL TIME 1.18800E+08 1.98000E+06  33000.      1375.0      3.7645    
 UBDSV1 SAVING           STO-SS ON UNIT   1016 AT TIME STEP      9, STRESS PERIOD     47
 UBDSV1 SAVING           STO-SY ON UNIT   1016 AT TIME STEP      9, STRESS PERIOD     47
 UBDSV1 SAVING     FLOW-JA-FACE ON UNIT   1016 AT TIME STEP      9, STRESS PERIOD     47
 UBDSV06 SAVING              RCH IN MODEL TEST_TRANS       PACKAGE TEST_TRANS      CONNECTED TO MODEL TEST_TRANS       PACKAGE RCHA             ON UNIT   1016 AT TIME STEP      9, STRESS PERIOD     47
 UBDSV06 SAVING              CHD IN MODEL TEST_TRANS       PACKAGE TEST_TRANS      CONNECTED TO MODEL TEST_TRANS       PACKAGE CHD              ON UNIT   1016 AT TIME STEP      9, STRESS PERIOD     47

 HEAD WILL BE SAVED ON UNIT 1017 AT END OF TIME STEP    9, STRESS PERIOD   47


  VOLUME BUDGET FOR ENTIRE MODEL AT END OF TIME STEP    9, STRESS PERIOD  47
  ---------------------------------------------------------------------------------------------------

     CUMULATIVE VOLUME      L**3       RATES FOR THIS TIME STEP      L**3/T          PACKAGE NAME    
     ------------------                 ------------------------                     ----------------

           IN:                                      IN:
           ---                                      ---
              STO-SS =          61.7620                STO-SS =           0.0000     STORAGE         
              STO-SY =       39456.1348                STO-SY =           0.0000     STORAGE         
                 RCH =      224126.3934                   RCH =         214.5203     RCHA            
                 CHD =         313.8567                   CHD =           0.0000     CHD             

            TOTAL IN =      263958.1468              TOTAL IN =         214.5203

          OUT:                                     OUT:
          ----                                     ----
              STO-SS =          53.5037                STO-SS =       6.3715E-02     STORAGE         
              STO-SY =       34501.7291                STO-SY =          39.9237     STORAGE         
                 RCH =           0.0000                   RCH =           0.0000     RCHA            
                 CHD =      229404.4989                   CHD =         174.5502     CHD             

           TOTAL OUT =      263959.7317             TOTAL OUT =         214.5376

            IN - OUT =          -1.5848              IN - OUT =      -1.7399E-02

 PERCENT DISCREPANCY =          -0.00     PERCENT DISCREPANCY =          -0.01




         TIME SUMMARY AT END OF TIME STEP    9 IN STRESS PERIOD   47
                    SECONDS     MINUTES      HOURS       DAYS        YEARS
                    -----------------------------------------------------------
   TIME STEP LENGTH 2.59200E+05  4320.0      72.000      3.0000     8.21355E-03
 STRESS PERIOD TIME 2.33280E+06  38880.      648.00      27.000     7.39220E-02
         TOTAL TIME 1.19059E+08 1.98432E+06  33072.      1378.0      3.7728    
 UBDSV1 SAVING           STO-SS ON UNIT   1016 AT TIME STEP     10, STRESS PERIOD     47
 UBDSV1 SAVING           STO-SY ON UNIT   1016 AT TIME STEP     10, STRESS PERIOD     47
 UBDSV1 SAVING     FLOW-JA-FACE ON UNIT   1016 AT TIME STEP     10, STRESS PERIOD     47
 UBDSV06 SAVING              RCH IN MODEL TEST_TRANS       PACKAGE TEST_TRANS      CONNECTED TO MODEL TEST_TRANS       PACKAGE RCHA             ON UNIT   1016 AT TIME STEP     10, STRESS PERIOD     47
 UBDSV06 SAVING              CHD IN MODEL TEST_TRANS       PACKAGE TEST_TRANS      CONNECTED TO MODEL TEST_TRANS       PACKAGE CHD              ON UNIT   1016 AT TIME STEP     10, STRESS PERIOD     47

 HEAD WILL BE SAVED ON UNIT 1017 AT END OF TIME STEP   10, STRESS PERIOD   47


  VOLUME BUDGET FOR ENTIRE MODEL AT END OF TIME STEP   10, STRESS PERIOD  47
  ---------------------------------------------------------------------------------------------------

     CUMULATIVE VOLUME      L**3       RATES FOR THIS TIME STEP      L**3/T          PACKAGE NAME    
     ------------------                 ------------------------                     ----------------

           IN:                                      IN:
           ---                                      ---
              STO-SS =          61.7620                STO-SS =           0.0000     STORAGE         
              STO-SY =       39456.1348                STO-SY =           0.0000     STORAGE         
                 RCH =      224769.9542                   RCH =         214.5203     RCHA            
                 CHD =         313.8567                   CHD =           0.0000     CHD             

            TOTAL IN =      264601.7076              TOTAL IN =         214.5203

          OUT:                                     OUT:
          ----                                     ----
              STO-SS =          53.6935                STO-SS =       6.3253E-02     STORAGE         
              STO-SY =       34620.7021                STO-SY =          39.6577     STORAGE         
                 RCH =           0.0000                   RCH =           0.0000     RCHA            
                 CHD =      229928.9597                   CHD =         174.8203     CHD             

           TOTAL OUT =      264603.3553             TOTAL OUT =         214.5412

            IN - OUT =          -1.6477              IN - OUT =      -2.0946E-02

 PERCENT DISCREPANCY =          -0.00     PERCENT DISCREPANCY =          -0.01




         TIME SUMMARY AT END OF TIME STEP   10 IN STRESS PERIOD   47
                    SECONDS     MINUTES      HOURS       DAYS        YEARS
                    -----------------------------------------------------------
   TIME STEP LENGTH 2.59200E+05  4320.0      72.000      3.0000     8.21355E-03
 STRESS PERIOD TIME 2.59200E+06  43200.      720.00      30.000     8.21355E-02
         TOTAL TIME 1.19318E+08 1.98864E+06  33144.      1381.0      3.7810    

 OUTPUT CONTROL FOR STRESS PERIOD 48 IS REPEATED USING SETTINGS FROM A PREVIOUS STRESS PERIOD.


 STRESS PERIOD 48 IS TRANSIENT


                 RECHARGE =  0.2739730E-02
 UBDSV1 SAVING           STO-SS ON UNIT   1016 AT TIME STEP      1, STRESS PERIOD     48
 UBDSV1 SAVING           STO-SY ON UNIT   1016 AT TIME STEP      1, STRESS PERIOD     48
 UBDSV1 SAVING     FLOW-JA-FACE ON UNIT   1016 AT TIME STEP      1, STRESS PERIOD     48
 UBDSV06 SAVING              RCH IN MODEL TEST_TRANS       PACKAGE TEST_TRANS      CONNECTED TO MODEL TEST_TRANS       PACKAGE RCHA             ON UNIT   1016 AT TIME STEP      1, STRESS PERIOD     48
 UBDSV06 SAVING              CHD IN MODEL TEST_TRANS       PACKAGE TEST_TRANS      CONNECTED TO MODEL TEST_TRANS       PACKAGE CHD              ON UNIT   1016 AT TIME STEP      1, STRESS PERIOD     48

 HEAD WILL BE SAVED ON UNIT 1017 AT END OF TIME STEP    1, STRESS PERIOD   48


  VOLUME BUDGET FOR ENTIRE MODEL AT END OF TIME STEP    1, STRESS PERIOD  48
  ---------------------------------------------------------------------------------------------------

     CUMULATIVE VOLUME      L**3       RATES FOR THIS TIME STEP      L**3/T          PACKAGE NAME    
     ------------------                 ------------------------                     ----------------

           IN:                                      IN:
           ---                                      ---
              STO-SS =          61.8762                STO-SS =       3.8095E-02     STORAGE         
              STO-SY =       39537.7116                STO-SY =          27.1923     STORAGE         
                 RCH =      225485.0237                   RCH =         238.3565     RCHA            
                 CHD =         313.8567                   CHD =           0.0000     CHD             

            TOTAL IN =      265398.4683              TOTAL IN =         265.5869

          OUT:                                     OUT:
          ----                                     ----
              STO-SS =          53.9573                STO-SS =       8.7940E-02     STORAGE         
              STO-SY =       34785.6506                STO-SY =          54.9829     STORAGE         
                 RCH =           0.0000                   RCH =           0.0000     RCHA            
                 CHD =      230560.5145                   CHD =         210.5183     CHD             

           TOTAL OUT =      265400.1224             TOTAL OUT =         265.5891

            IN - OUT =          -1.6542              IN - OUT =      -2.1672E-03

 PERCENT DISCREPANCY =          -0.00     PERCENT DISCREPANCY =          -0.00




         TIME SUMMARY AT END OF TIME STEP    1 IN STRESS PERIOD   48
                    SECONDS     MINUTES      HOURS       DAYS        YEARS
                    -----------------------------------------------------------
   TIME STEP LENGTH 2.59200E+05  4320.0      72.000      3.0000     8.21355E-03
 STRESS PERIOD TIME 2.59200E+05  4320.0      72.000      3.0000     8.21355E-03
         TOTAL TIME 1.19578E+08 1.99296E+06  33216.      1384.0      3.7892    
 UBDSV1 SAVING           STO-SS ON UNIT   1016 AT TIME STEP      2, STRESS PERIOD     48
 UBDSV1 SAVING           STO-SY ON UNIT   1016 AT TIME STEP      2, STRESS PERIOD     48
 UBDSV1 SAVING     FLOW-JA-FACE ON UNIT   1016 AT TIME STEP      2, STRESS PERIOD     48
 UBDSV06 SAVING              RCH IN MODEL TEST_TRANS       PACKAGE TEST_TRANS      CONNECTED TO MODEL TEST_TRANS       PACKAGE RCHA             ON UNIT   1016 AT TIME STEP      2, STRESS PERIOD     48
 UBDSV06 SAVING              CHD IN MODEL TEST_TRANS       PACKAGE TEST_TRANS      CONNECTED TO MODEL TEST_TRANS       PACKAGE CHD              ON UNIT   1016 AT TIME STEP      2, STRESS PERIOD     48

 HEAD WILL BE SAVED ON UNIT 1017 AT END OF TIME STEP    2, STRESS PERIOD   48


  VOLUME BUDGET FOR ENTIRE MODEL AT END OF TIME STEP    2, STRESS PERIOD  48
  ---------------------------------------------------------------------------------------------------

     CUMULATIVE VOLUME      L**3       RATES FOR THIS TIME STEP      L**3/T          PACKAGE NAME    
     ------------------                 ------------------------                     ----------------

           IN:                                      IN:
           ---                                      ---
              STO-SS =          61.9302                STO-SS =       1.7988E-02     STORAGE         
              STO-SY =       39575.9120                STO-SY =          12.7335     STORAGE         
                 RCH =      226200.0932                   RCH =         238.3565     RCHA            
                 CHD =         313.8567                   CHD =           0.0000     CHD             

            TOTAL IN =      266151.7921              TOTAL IN =         251.1080

          OUT:                                     OUT:
          ----                                     ----
              STO-SS =          54.2079                STO-SS =       8.3534E-02     STORAGE         
              STO-SY =       34941.9338                STO-SY =          52.0944     STORAGE         
                 RCH =           0.0000                   RCH =           0.0000     RCHA            
                 CHD =      231157.3235                   CHD =         198.9363     CHD             

           TOTAL OUT =      266153.4652             TOTAL OUT =         251.1143

            IN - OUT =          -1.6731              IN - OUT =      -6.2949E-03

 PERCENT DISCREPANCY =          -0.00     PERCENT DISCREPANCY =          -0.00




         TIME SUMMARY AT END OF TIME STEP    2 IN STRESS PERIOD   48
                    SECONDS     MINUTES      HOURS       DAYS        YEARS
                    -----------------------------------------------------------
   TIME STEP LENGTH 2.59200E+05  4320.0      72.000      3.0000     8.21355E-03
 STRESS PERIOD TIME 5.18400E+05  8640.0      144.00      6.0000     1.64271E-02
         TOTAL TIME 1.19837E+08 1.99728E+06  33288.      1387.0      3.7974    
 UBDSV1 SAVING           STO-SS ON UNIT   1016 AT TIME STEP      3, STRESS PERIOD     48
 UBDSV1 SAVING           STO-SY ON UNIT   1016 AT TIME STEP      3, STRESS PERIOD     48
 UBDSV1 SAVING     FLOW-JA-FACE ON UNIT   1016 AT TIME STEP      3, STRESS PERIOD     48
 UBDSV06 SAVING              RCH IN MODEL TEST_TRANS       PACKAGE TEST_TRANS      CONNECTED TO MODEL TEST_TRANS       PACKAGE RCHA             ON UNIT   1016 AT TIME STEP      3, STRESS PERIOD     48
 UBDSV06 SAVING              CHD IN MODEL TEST_TRANS       PACKAGE TEST_TRANS      CONNECTED TO MODEL TEST_TRANS       PACKAGE CHD              ON UNIT   1016 AT TIME STEP      3, STRESS PERIOD     48

 HEAD WILL BE SAVED ON UNIT 1017 AT END OF TIME STEP    3, STRESS PERIOD   48


  VOLUME BUDGET FOR ENTIRE MODEL AT END OF TIME STEP    3, STRESS PERIOD  48
  ---------------------------------------------------------------------------------------------------

     CUMULATIVE VOLUME      L**3       RATES FOR THIS TIME STEP      L**3/T          PACKAGE NAME    
     ------------------                 ------------------------                     ----------------

           IN:                                      IN:
           ---                                      ---
              STO-SS =          61.9580                STO-SS =       9.2562E-03     STORAGE         
              STO-SY =       39595.4731                STO-SY =           6.5204     STORAGE         
                 RCH =      226915.1628                   RCH =         238.3565     RCHA            
                 CHD =         313.8567                   CHD =           0.0000     CHD             

            TOTAL IN =      266886.4505              TOTAL IN =         244.8861

          OUT:                                     OUT:
          ----                                     ----
              STO-SS =          54.4492                STO-SS =       8.0438E-02     STORAGE         
              STO-SY =       35092.1953                STO-SY =          50.0872     STORAGE         
                 RCH =           0.0000                   RCH =           0.0000     RCHA            
                 CHD =      231741.4851                   CHD =         194.7205     CHD             

           TOTAL OUT =      266888.1296             TOTAL OUT =         244.8881

            IN - OUT =          -1.6791              IN - OUT =      -2.0066E-03

 PERCENT DISCREPANCY =          -0.00     PERCENT DISCREPANCY =          -0.00




         TIME SUMMARY AT END OF TIME STEP    3 IN STRESS PERIOD   48
                    SECONDS     MINUTES      HOURS       DAYS        YEARS
                    -----------------------------------------------------------
   TIME STEP LENGTH 2.59200E+05  4320.0      72.000      3.0000     8.21355E-03
 STRESS PERIOD TIME 7.77600E+05  12960.      216.00      9.0000     2.46407E-02
         TOTAL TIME 1.20096E+08 2.00160E+06  33360.      1390.0      3.8056    
 UBDSV1 SAVING           STO-SS ON UNIT   1016 AT TIME STEP      4, STRESS PERIOD     48
 UBDSV1 SAVING           STO-SY ON UNIT   1016 AT TIME STEP      4, STRESS PERIOD     48
 UBDSV1 SAVING     FLOW-JA-FACE ON UNIT   1016 AT TIME STEP      4, STRESS PERIOD     48
 UBDSV06 SAVING              RCH IN MODEL TEST_TRANS       PACKAGE TEST_TRANS      CONNECTED TO MODEL TEST_TRANS       PACKAGE RCHA             ON UNIT   1016 AT TIME STEP      4, STRESS PERIOD     48
 UBDSV06 SAVING              CHD IN MODEL TEST_TRANS       PACKAGE TEST_TRANS      CONNECTED TO MODEL TEST_TRANS       PACKAGE CHD              ON UNIT   1016 AT TIME STEP      4, STRESS PERIOD     48

 HEAD WILL BE SAVED ON UNIT 1017 AT END OF TIME STEP    4, STRESS PERIOD   48


  VOLUME BUDGET FOR ENTIRE MODEL AT END OF TIME STEP    4, STRESS PERIOD  48
  ---------------------------------------------------------------------------------------------------

     CUMULATIVE VOLUME      L**3       RATES FOR THIS TIME STEP      L**3/T          PACKAGE NAME    
     ------------------                 ------------------------                     ----------------

           IN:                                      IN:
           ---                                      ---
              STO-SS =          61.9716                STO-SS =       4.5531E-03     STORAGE         
              STO-SY =       39605.0890                STO-SY =           3.2053     STORAGE         
                 RCH =      227630.2323                   RCH =         238.3565     RCHA            
                 CHD =         313.8567                   CHD =           0.0000     CHD             

            TOTAL IN =      267611.1496              TOTAL IN =         241.5664

          OUT:                                     OUT:
          ----                                     ----
              STO-SS =          54.6836                STO-SS =       7.8137E-02     STORAGE         
              STO-SY =       35238.0213                STO-SY =          48.6087     STORAGE         
                 RCH =           0.0000                   RCH =           0.0000     RCHA            
                 CHD =      232320.1284                   CHD =         192.8811     CHD             

           TOTAL OUT =      267612.8333             TOTAL OUT =         241.5679

            IN - OUT =          -1.6837              IN - OUT =      -1.5340E-03

 PERCENT DISCREPANCY =          -0.00     PERCENT DISCREPANCY =          -0.00




         TIME SUMMARY AT END OF TIME STEP    4 IN STRESS PERIOD   48
                    SECONDS     MINUTES      HOURS       DAYS        YEARS
                    -----------------------------------------------------------
   TIME STEP LENGTH 2.59200E+05  4320.0      72.000      3.0000     8.21355E-03
 STRESS PERIOD TIME 1.03680E+06  17280.      288.00      12.000     3.28542E-02
         TOTAL TIME 1.20355E+08 2.00592E+06  33432.      1393.0      3.8138    
 UBDSV1 SAVING           STO-SS ON UNIT   1016 AT TIME STEP      5, STRESS PERIOD     48
 UBDSV1 SAVING           STO-SY ON UNIT   1016 AT TIME STEP      5, STRESS PERIOD     48
 UBDSV1 SAVING     FLOW-JA-FACE ON UNIT   1016 AT TIME STEP      5, STRESS PERIOD     48
 UBDSV06 SAVING              RCH IN MODEL TEST_TRANS       PACKAGE TEST_TRANS      CONNECTED TO MODEL TEST_TRANS       PACKAGE RCHA             ON UNIT   1016 AT TIME STEP      5, STRESS PERIOD     48
 UBDSV06 SAVING              CHD IN MODEL TEST_TRANS       PACKAGE TEST_TRANS      CONNECTED TO MODEL TEST_TRANS       PACKAGE CHD              ON UNIT   1016 AT TIME STEP      5, STRESS PERIOD     48

 HEAD WILL BE SAVED ON UNIT 1017 AT END OF TIME STEP    5, STRESS PERIOD   48


  VOLUME BUDGET FOR ENTIRE MODEL AT END OF TIME STEP    5, STRESS PERIOD  48
  ---------------------------------------------------------------------------------------------------

     CUMULATIVE VOLUME      L**3       RATES FOR THIS TIME STEP      L**3/T          PACKAGE NAME    
     ------------------                 ------------------------                     ----------------

           IN:                                      IN:
           ---                                      ---
              STO-SS =          61.9773                STO-SS =       1.8720E-03     STORAGE         
              STO-SY =       39609.0570                STO-SY =           1.3227     STORAGE         
                 RCH =      228345.3018                   RCH =         238.3565     RCHA            
                 CHD =         313.8567                   CHD =           0.0000     CHD             

            TOTAL IN =      268330.1927              TOTAL IN =         239.6810

          OUT:                                     OUT:
          ----                                     ----
              STO-SS =          54.9131                STO-SS =       7.6484E-02     STORAGE         
              STO-SY =       35380.6971                STO-SY =          47.5586     STORAGE         
                 RCH =           0.0000                   RCH =           0.0000     RCHA            
                 CHD =      232896.2720                   CHD =         192.0479     CHD             

           TOTAL OUT =      268331.8821             TOTAL OUT =         239.6829

            IN - OUT =          -1.6894              IN - OUT =      -1.9090E-03

 PERCENT DISCREPANCY =          -0.00     PERCENT DISCREPANCY =          -0.00




         TIME SUMMARY AT END OF TIME STEP    5 IN STRESS PERIOD   48
                    SECONDS     MINUTES      HOURS       DAYS        YEARS
                    -----------------------------------------------------------
   TIME STEP LENGTH 2.59200E+05  4320.0      72.000      3.0000     8.21355E-03
 STRESS PERIOD TIME 1.29600E+06  21600.      360.00      15.000     4.10678E-02
         TOTAL TIME 1.20614E+08 2.01024E+06  33504.      1396.0      3.8220    
 UBDSV1 SAVING           STO-SS ON UNIT   1016 AT TIME STEP      6, STRESS PERIOD     48
 UBDSV1 SAVING           STO-SY ON UNIT   1016 AT TIME STEP      6, STRESS PERIOD     48
 UBDSV1 SAVING     FLOW-JA-FACE ON UNIT   1016 AT TIME STEP      6, STRESS PERIOD     48
 UBDSV06 SAVING              RCH IN MODEL TEST_TRANS       PACKAGE TEST_TRANS      CONNECTED TO MODEL TEST_TRANS       PACKAGE RCHA             ON UNIT   1016 AT TIME STEP      6, STRESS PERIOD     48
 UBDSV06 SAVING              CHD IN MODEL TEST_TRANS       PACKAGE TEST_TRANS      CONNECTED TO MODEL TEST_TRANS       PACKAGE CHD              ON UNIT   1016 AT TIME STEP      6, STRESS PERIOD     48

 HEAD WILL BE SAVED ON UNIT 1017 AT END OF TIME STEP    6, STRESS PERIOD   48


  VOLUME BUDGET FOR ENTIRE MODEL AT END OF TIME STEP    6, STRESS PERIOD  48
  ---------------------------------------------------------------------------------------------------

     CUMULATIVE VOLUME      L**3       RATES FOR THIS TIME STEP      L**3/T          PACKAGE NAME    
     ------------------                 ------------------------                     ----------------

           IN:                                      IN:
           ---                                      ---
              STO-SS =          61.9787                STO-SS =       4.8303E-04     STORAGE         
              STO-SY =       39610.0903                STO-SY =           0.3444     STORAGE         
                 RCH =      229060.3713                   RCH =         238.3565     RCHA            
                 CHD =         313.8567                   CHD =           0.0000     CHD             

            TOTAL IN =      269046.2970              TOTAL IN =         238.7014

          OUT:                                     OUT:
          ----                                     ----
              STO-SS =          55.1393                STO-SS =       7.5416E-02     STORAGE         
              STO-SY =       35521.3926                STO-SY =          46.8985     STORAGE         
                 RCH =           0.0000                   RCH =           0.0000     RCHA            
                 CHD =      233471.4611                   CHD =         191.7297     CHD             

           TOTAL OUT =      269047.9930             TOTAL OUT =         238.7036

            IN - OUT =          -1.6960              IN - OUT =      -2.1931E-03

 PERCENT DISCREPANCY =          -0.00     PERCENT DISCREPANCY =          -0.00




         TIME SUMMARY AT END OF TIME STEP    6 IN STRESS PERIOD   48
                    SECONDS     MINUTES      HOURS       DAYS        YEARS
                    -----------------------------------------------------------
   TIME STEP LENGTH 2.59200E+05  4320.0      72.000      3.0000     8.21355E-03
 STRESS PERIOD TIME 1.55520E+06  25920.      432.00      18.000     4.92813E-02
         TOTAL TIME 1.20874E+08 2.01456E+06  33576.      1399.0      3.8303    
 UBDSV1 SAVING           STO-SS ON UNIT   1016 AT TIME STEP      7, STRESS PERIOD     48
 UBDSV1 SAVING           STO-SY ON UNIT   1016 AT TIME STEP      7, STRESS PERIOD     48
 UBDSV1 SAVING     FLOW-JA-FACE ON UNIT   1016 AT TIME STEP      7, STRESS PERIOD     48
 UBDSV06 SAVING              RCH IN MODEL TEST_TRANS       PACKAGE TEST_TRANS      CONNECTED TO MODEL TEST_TRANS       PACKAGE RCHA             ON UNIT   1016 AT TIME STEP      7, STRESS PERIOD     48
 UBDSV06 SAVING              CHD IN MODEL TEST_TRANS       PACKAGE TEST_TRANS      CONNECTED TO MODEL TEST_TRANS       PACKAGE CHD              ON UNIT   1016 AT TIME STEP      7, STRESS PERIOD     48

 HEAD WILL BE SAVED ON UNIT 1017 AT END OF TIME STEP    7, STRESS PERIOD   48


  VOLUME BUDGET FOR ENTIRE MODEL AT END OF TIME STEP    7, STRESS PERIOD  48
  ---------------------------------------------------------------------------------------------------

     CUMULATIVE VOLUME      L**3       RATES FOR THIS TIME STEP      L**3/T          PACKAGE NAME    
     ------------------                 ------------------------                     ----------------

           IN:                                      IN:
           ---                                      ---
              STO-SS =          61.9787                STO-SS =       9.0732E-06     STORAGE         
              STO-SY =       39610.1101                STO-SY =       6.5966E-03     STORAGE         
                 RCH =      229775.4409                   RCH =         238.3565     RCHA            
                 CHD =         313.8567                   CHD =           0.0000     CHD             

            TOTAL IN =      269761.3864              TOTAL IN =         238.3631

          OUT:                                     OUT:
          ----                                     ----
              STO-SS =          55.3639                STO-SS =       7.4851E-02     STORAGE         
              STO-SY =       35661.1318                STO-SY =          46.5798     STORAGE         
                 RCH =           0.0000                   RCH =           0.0000     RCHA            
                 CHD =      234046.5937                   CHD =         191.7109     CHD             

           TOTAL OUT =      269763.0895             TOTAL OUT =         238.3655

            IN - OUT =          -1.7031              IN - OUT =      -2.3696E-03

 PERCENT DISCREPANCY =          -0.00     PERCENT DISCREPANCY =          -0.00




         TIME SUMMARY AT END OF TIME STEP    7 IN STRESS PERIOD   48
                    SECONDS     MINUTES      HOURS       DAYS        YEARS
                    -----------------------------------------------------------
   TIME STEP LENGTH 2.59200E+05  4320.0      72.000      3.0000     8.21355E-03
 STRESS PERIOD TIME 1.81440E+06  30240.      504.00      21.000     5.74949E-02
         TOTAL TIME 1.21133E+08 2.01888E+06  33648.      1402.0      3.8385    
 UBDSV1 SAVING           STO-SS ON UNIT   1016 AT TIME STEP      8, STRESS PERIOD     48
 UBDSV1 SAVING           STO-SY ON UNIT   1016 AT TIME STEP      8, STRESS PERIOD     48
 UBDSV1 SAVING     FLOW-JA-FACE ON UNIT   1016 AT TIME STEP      8, STRESS PERIOD     48
 UBDSV06 SAVING              RCH IN MODEL TEST_TRANS       PACKAGE TEST_TRANS      CONNECTED TO MODEL TEST_TRANS       PACKAGE RCHA             ON UNIT   1016 AT TIME STEP      8, STRESS PERIOD     48
 UBDSV06 SAVING              CHD IN MODEL TEST_TRANS       PACKAGE TEST_TRANS      CONNECTED TO MODEL TEST_TRANS       PACKAGE CHD              ON UNIT   1016 AT TIME STEP      8, STRESS PERIOD     48

 HEAD WILL BE SAVED ON UNIT 1017 AT END OF TIME STEP    8, STRESS PERIOD   48


  VOLUME BUDGET FOR ENTIRE MODEL AT END OF TIME STEP    8, STRESS PERIOD  48
  ---------------------------------------------------------------------------------------------------

     CUMULATIVE VOLUME      L**3       RATES FOR THIS TIME STEP      L**3/T          PACKAGE NAME    
     ------------------                 ------------------------                     ----------------

           IN:                                      IN:
           ---                                      ---
              STO-SS =          61.9787                STO-SS =           0.0000     STORAGE         
              STO-SY =       39610.1101                STO-SY =           0.0000     STORAGE         
                 RCH =      230490.5104                   RCH =         238.3565     RCHA            
                 CHD =         313.8567                   CHD =           0.0000     CHD             

            TOTAL IN =      270476.4559              TOTAL IN =         238.3565

          OUT:                                     OUT:
          ----                                     ----
              STO-SS =          55.5874                STO-SS =       7.4519E-02     STORAGE         
              STO-SY =       35800.3979                STO-SY =          46.4220     STORAGE         
                 RCH =           0.0000                   RCH =           0.0000     RCHA            
                 CHD =      234622.2390                   CHD =         191.8818     CHD             

           TOTAL OUT =      270478.2244             TOTAL OUT =         238.3783

            IN - OUT =          -1.7685              IN - OUT =      -2.1806E-02

 PERCENT DISCREPANCY =          -0.00     PERCENT DISCREPANCY =          -0.01




         TIME SUMMARY AT END OF TIME STEP    8 IN STRESS PERIOD   48
                    SECONDS     MINUTES      HOURS       DAYS        YEARS
                    -----------------------------------------------------------
   TIME STEP LENGTH 2.59200E+05  4320.0      72.000      3.0000     8.21355E-03
 STRESS PERIOD TIME 2.07360E+06  34560.      576.00      24.000     6.57084E-02
         TOTAL TIME 1.21392E+08 2.02320E+06  33720.      1405.0      3.8467    
 UBDSV1 SAVING           STO-SS ON UNIT   1016 AT TIME STEP      9, STRESS PERIOD     48
 UBDSV1 SAVING           STO-SY ON UNIT   1016 AT TIME STEP      9, STRESS PERIOD     48
 UBDSV1 SAVING     FLOW-JA-FACE ON UNIT   1016 AT TIME STEP      9, STRESS PERIOD     48
 UBDSV06 SAVING              RCH IN MODEL TEST_TRANS       PACKAGE TEST_TRANS      CONNECTED TO MODEL TEST_TRANS       PACKAGE RCHA             ON UNIT   1016 AT TIME STEP      9, STRESS PERIOD     48
 UBDSV06 SAVING              CHD IN MODEL TEST_TRANS       PACKAGE TEST_TRANS      CONNECTED TO MODEL TEST_TRANS       PACKAGE CHD              ON UNIT   1016 AT TIME STEP      9, STRESS PERIOD     48

 HEAD WILL BE SAVED ON UNIT 1017 AT END OF TIME STEP    9, STRESS PERIOD   48


  VOLUME BUDGET FOR ENTIRE MODEL AT END OF TIME STEP    9, STRESS PERIOD  48
  ---------------------------------------------------------------------------------------------------

     CUMULATIVE VOLUME      L**3       RATES FOR THIS TIME STEP      L**3/T          PACKAGE NAME    
     ------------------                 ------------------------                     ----------------

           IN:                                      IN:
           ---                                      ---
              STO-SS =          61.9787                STO-SS =           0.0000     STORAGE         
              STO-SY =       39610.1101                STO-SY =           0.0000     STORAGE         
                 RCH =      231205.5799                   RCH =         238.3565     RCHA            
                 CHD =         313.8567                   CHD =           0.0000     CHD             

            TOTAL IN =      271191.5254              TOTAL IN =         238.3565

          OUT:                                     OUT:
          ----                                     ----
              STO-SS =          55.8094                STO-SS =       7.3994E-02     STORAGE         
              STO-SY =       35938.7792                STO-SY =          46.1271     STORAGE         
                 RCH =           0.0000                   RCH =           0.0000     RCHA            
                 CHD =      235198.7860                   CHD =         192.1823     CHD             

           TOTAL OUT =      271193.3747             TOTAL OUT =         238.3834

            IN - OUT =          -1.8492              IN - OUT =      -2.6907E-02

 PERCENT DISCREPANCY =          -0.00     PERCENT DISCREPANCY =          -0.01




         TIME SUMMARY AT END OF TIME STEP    9 IN STRESS PERIOD   48
                    SECONDS     MINUTES      HOURS       DAYS        YEARS
                    -----------------------------------------------------------
   TIME STEP LENGTH 2.59200E+05  4320.0      72.000      3.0000     8.21355E-03
 STRESS PERIOD TIME 2.33280E+06  38880.      648.00      27.000     7.39220E-02
         TOTAL TIME 1.21651E+08 2.02752E+06  33792.      1408.0      3.8549    
 UBDSV1 SAVING           STO-SS ON UNIT   1016 AT TIME STEP     10, STRESS PERIOD     48
 UBDSV1 SAVING           STO-SY ON UNIT   1016 AT TIME STEP     10, STRESS PERIOD     48
 UBDSV1 SAVING     FLOW-JA-FACE ON UNIT   1016 AT TIME STEP     10, STRESS PERIOD     48
 UBDSV06 SAVING              RCH IN MODEL TEST_TRANS       PACKAGE TEST_TRANS      CONNECTED TO MODEL TEST_TRANS       PACKAGE RCHA             ON UNIT   1016 AT TIME STEP     10, STRESS PERIOD     48
 UBDSV06 SAVING              CHD IN MODEL TEST_TRANS       PACKAGE TEST_TRANS      CONNECTED TO MODEL TEST_TRANS       PACKAGE CHD              ON UNIT   1016 AT TIME STEP     10, STRESS PERIOD     48

 HEAD WILL BE SAVED ON UNIT 1017 AT END OF TIME STEP   10, STRESS PERIOD   48


  VOLUME BUDGET FOR ENTIRE MODEL AT END OF TIME STEP   10, STRESS PERIOD  48
  ---------------------------------------------------------------------------------------------------

     CUMULATIVE VOLUME      L**3       RATES FOR THIS TIME STEP      L**3/T          PACKAGE NAME    
     ------------------                 ------------------------                     ----------------

           IN:                                      IN:
           ---                                      ---
              STO-SS =          61.9787                STO-SS =           0.0000     STORAGE         
              STO-SY =       39610.1101                STO-SY =           0.0000     STORAGE         
                 RCH =      231920.6495                   RCH =         238.3565     RCHA            
                 CHD =         313.8567                   CHD =           0.0000     CHD             

            TOTAL IN =      271906.5950              TOTAL IN =         238.3565

          OUT:                                     OUT:
          ----                                     ----
              STO-SS =          56.0295                STO-SS =       7.3347E-02     STORAGE         
              STO-SY =       36076.0096                STO-SY =          45.7435     STORAGE         
                 RCH =           0.0000                   RCH =           0.0000     RCHA            
                 CHD =      235776.4982                   CHD =         192.5707     CHD             

           TOTAL OUT =      271908.5373             TOTAL OUT =         238.3875

            IN - OUT =          -1.9423              IN - OUT =      -3.1020E-02

 PERCENT DISCREPANCY =          -0.00     PERCENT DISCREPANCY =          -0.01




         TIME SUMMARY AT END OF TIME STEP   10 IN STRESS PERIOD   48
                    SECONDS     MINUTES      HOURS       DAYS        YEARS
                    -----------------------------------------------------------
   TIME STEP LENGTH 2.59200E+05  4320.0      72.000      3.0000     8.21355E-03
 STRESS PERIOD TIME 2.59200E+06  43200.      720.00      30.000     8.21355E-02
         TOTAL TIME 1.21910E+08 2.03184E+06  33864.      1411.0      3.8631    

 OUTPUT CONTROL FOR STRESS PERIOD 49 IS REPEATED USING SETTINGS FROM A PREVIOUS STRESS PERIOD.


 STRESS PERIOD 49 IS TRANSIENT


                 RECHARGE =  0.2739730E-02
 UBDSV1 SAVING           STO-SS ON UNIT   1016 AT TIME STEP      1, STRESS PERIOD     49
 UBDSV1 SAVING           STO-SY ON UNIT   1016 AT TIME STEP      1, STRESS PERIOD     49
 UBDSV1 SAVING     FLOW-JA-FACE ON UNIT   1016 AT TIME STEP      1, STRESS PERIOD     49
 UBDSV06 SAVING              RCH IN MODEL TEST_TRANS       PACKAGE TEST_TRANS      CONNECTED TO MODEL TEST_TRANS       PACKAGE RCHA             ON UNIT   1016 AT TIME STEP      1, STRESS PERIOD     49
 UBDSV06 SAVING              CHD IN MODEL TEST_TRANS       PACKAGE TEST_TRANS      CONNECTED TO MODEL TEST_TRANS       PACKAGE CHD              ON UNIT   1016 AT TIME STEP      1, STRESS PERIOD     49

 HEAD WILL BE SAVED ON UNIT 1017 AT END OF TIME STEP    1, STRESS PERIOD   49


  VOLUME BUDGET FOR ENTIRE MODEL AT END OF TIME STEP    1, STRESS PERIOD  49
  ---------------------------------------------------------------------------------------------------

     CUMULATIVE VOLUME      L**3       RATES FOR THIS TIME STEP      L**3/T          PACKAGE NAME    
     ------------------                 ------------------------                     ----------------

           IN:                                      IN:
           ---                                      ---
              STO-SS =          62.4495                STO-SS =           0.1569     STORAGE         
              STO-SY =       39948.0786                STO-SY =         112.6562     STORAGE         
                 RCH =      232635.7190                   RCH =         238.3565     RCHA            
                 CHD =         313.8567                   CHD =           0.0000     CHD             

            TOTAL IN =      272960.1037              TOTAL IN =         351.1696

          OUT:                                     OUT:
          ----                                     ----
              STO-SS =          56.2187                STO-SS =       6.3076E-02     STORAGE         
              STO-SY =       36192.8449                STO-SY =          38.9451     STORAGE         
                 RCH =           0.0000                   RCH =           0.0000     RCHA            
                 CHD =      236712.9795                   CHD =         312.1604     CHD             

           TOTAL OUT =      272962.0431             TOTAL OUT =         351.1686

            IN - OUT =          -1.9394              IN - OUT =       9.6523E-04

 PERCENT DISCREPANCY =          -0.00     PERCENT DISCREPANCY =           0.00




         TIME SUMMARY AT END OF TIME STEP    1 IN STRESS PERIOD   49
                    SECONDS     MINUTES      HOURS       DAYS        YEARS
                    -----------------------------------------------------------
   TIME STEP LENGTH 2.59200E+05  4320.0      72.000      3.0000     8.21355E-03
 STRESS PERIOD TIME 2.59200E+05  4320.0      72.000      3.0000     8.21355E-03
         TOTAL TIME 1.22170E+08 2.03616E+06  33936.      1414.0      3.8713    
 UBDSV1 SAVING           STO-SS ON UNIT   1016 AT TIME STEP      2, STRESS PERIOD     49
 UBDSV1 SAVING           STO-SY ON UNIT   1016 AT TIME STEP      2, STRESS PERIOD     49
 UBDSV1 SAVING     FLOW-JA-FACE ON UNIT   1016 AT TIME STEP      2, STRESS PERIOD     49
 UBDSV06 SAVING              RCH IN MODEL TEST_TRANS       PACKAGE TEST_TRANS      CONNECTED TO MODEL TEST_TRANS       PACKAGE RCHA             ON UNIT   1016 AT TIME STEP      2, STRESS PERIOD     49
 UBDSV06 SAVING              CHD IN MODEL TEST_TRANS       PACKAGE TEST_TRANS      CONNECTED TO MODEL TEST_TRANS       PACKAGE CHD              ON UNIT   1016 AT TIME STEP      2, STRESS PERIOD     49

 HEAD WILL BE SAVED ON UNIT 1017 AT END OF TIME STEP    2, STRESS PERIOD   49


  VOLUME BUDGET FOR ENTIRE MODEL AT END OF TIME STEP    2, STRESS PERIOD  49
  ---------------------------------------------------------------------------------------------------

     CUMULATIVE VOLUME      L**3       RATES FOR THIS TIME STEP      L**3/T          PACKAGE NAME    
     ------------------                 ------------------------                     ----------------

           IN:                                      IN:
           ---                                      ---
              STO-SS =          62.7405                STO-SS =       9.7013E-02     STORAGE         
              STO-SY =       40154.8733                STO-SY =          68.9316     STORAGE         
                 RCH =      233350.7885                   RCH =         238.3565     RCHA            
                 CHD =         313.8567                   CHD =           0.0000     CHD             

            TOTAL IN =      273882.2590              TOTAL IN =         307.3851

          OUT:                                     OUT:
          ----                                     ----
              STO-SS =          56.3926                STO-SS =       5.7977E-02     STORAGE         
              STO-SY =       36299.9213                STO-SY =          35.6921     STORAGE         
                 RCH =           0.0000                   RCH =           0.0000     RCHA            
                 CHD =      237527.9131                   CHD =         271.6445     CHD             

           TOTAL OUT =      273884.2270             TOTAL OUT =         307.3946

            IN - OUT =          -1.9680              IN - OUT =      -9.5269E-03

 PERCENT DISCREPANCY =          -0.00     PERCENT DISCREPANCY =          -0.00




         TIME SUMMARY AT END OF TIME STEP    2 IN STRESS PERIOD   49
                    SECONDS     MINUTES      HOURS       DAYS        YEARS
                    -----------------------------------------------------------
   TIME STEP LENGTH 2.59200E+05  4320.0      72.000      3.0000     8.21355E-03
 STRESS PERIOD TIME 5.18400E+05  8640.0      144.00      6.0000     1.64271E-02
         TOTAL TIME 1.22429E+08 2.04048E+06  34008.      1417.0      3.8795    
 UBDSV1 SAVING           STO-SS ON UNIT   1016 AT TIME STEP      3, STRESS PERIOD     49
 UBDSV1 SAVING           STO-SY ON UNIT   1016 AT TIME STEP      3, STRESS PERIOD     49
 UBDSV1 SAVING     FLOW-JA-FACE ON UNIT   1016 AT TIME STEP      3, STRESS PERIOD     49
 UBDSV06 SAVING              RCH IN MODEL TEST_TRANS       PACKAGE TEST_TRANS      CONNECTED TO MODEL TEST_TRANS       PACKAGE RCHA             ON UNIT   1016 AT TIME STEP      3, STRESS PERIOD     49
 UBDSV06 SAVING              CHD IN MODEL TEST_TRANS       PACKAGE TEST_TRANS      CONNECTED TO MODEL TEST_TRANS       PACKAGE CHD              ON UNIT   1016 AT TIME STEP      3, STRESS PERIOD     49

 HEAD WILL BE SAVED ON UNIT 1017 AT END OF TIME STEP    3, STRESS PERIOD   49


  VOLUME BUDGET FOR ENTIRE MODEL AT END OF TIME STEP    3, STRESS PERIOD  49
  ---------------------------------------------------------------------------------------------------

     CUMULATIVE VOLUME      L**3       RATES FOR THIS TIME STEP      L**3/T          PACKAGE NAME    
     ------------------                 ------------------------                     ----------------

           IN:                                      IN:
           ---                                      ---
              STO-SS =          62.9459                STO-SS =       6.8463E-02     STORAGE         
              STO-SY =       40299.3482                STO-SY =          48.1583     STORAGE         
                 RCH =      234065.8581                   RCH =         238.3565     RCHA            
                 CHD =         313.8567                   CHD =           0.0000     CHD             

            TOTAL IN =      274742.0089              TOTAL IN =         286.5833

          OUT:                                     OUT:
          ----                                     ----
              STO-SS =          56.5535                STO-SS =       5.3620E-02     STORAGE         
              STO-SY =       36398.7354                STO-SY =          32.9381     STORAGE         
                 RCH =           0.0000                   RCH =           0.0000     RCHA            
                 CHD =      238288.7046                   CHD =         253.5972     CHD             

           TOTAL OUT =      274743.9936             TOTAL OUT =         286.5889

            IN - OUT =          -1.9846              IN - OUT =      -5.5574E-03

 PERCENT DISCREPANCY =          -0.00     PERCENT DISCREPANCY =          -0.00




         TIME SUMMARY AT END OF TIME STEP    3 IN STRESS PERIOD   49
                    SECONDS     MINUTES      HOURS       DAYS        YEARS
                    -----------------------------------------------------------
   TIME STEP LENGTH 2.59200E+05  4320.0      72.000      3.0000     8.21355E-03
 STRESS PERIOD TIME 7.77600E+05  12960.      216.00      9.0000     2.46407E-02
         TOTAL TIME 1.22688E+08 2.04480E+06  34080.      1420.0      3.8877    
 UBDSV1 SAVING           STO-SS ON UNIT   1016 AT TIME STEP      4, STRESS PERIOD     49
 UBDSV1 SAVING           STO-SY ON UNIT   1016 AT TIME STEP      4, STRESS PERIOD     49
 UBDSV1 SAVING     FLOW-JA-FACE ON UNIT   1016 AT TIME STEP      4, STRESS PERIOD     49
 UBDSV06 SAVING              RCH IN MODEL TEST_TRANS       PACKAGE TEST_TRANS      CONNECTED TO MODEL TEST_TRANS       PACKAGE RCHA             ON UNIT   1016 AT TIME STEP      4, STRESS PERIOD     49
 UBDSV06 SAVING              CHD IN MODEL TEST_TRANS       PACKAGE TEST_TRANS      CONNECTED TO MODEL TEST_TRANS       PACKAGE CHD              ON UNIT   1016 AT TIME STEP      4, STRESS PERIOD     49

 HEAD WILL BE SAVED ON UNIT 1017 AT END OF TIME STEP    4, STRESS PERIOD   49


  VOLUME BUDGET FOR ENTIRE MODEL AT END OF TIME STEP    4, STRESS PERIOD  49
  ---------------------------------------------------------------------------------------------------

     CUMULATIVE VOLUME      L**3       RATES FOR THIS TIME STEP      L**3/T          PACKAGE NAME    
     ------------------                 ------------------------                     ----------------

           IN:                                      IN:
           ---                                      ---
              STO-SS =          63.1000                STO-SS =       5.1369E-02     STORAGE         
              STO-SY =       40406.9626                STO-SY =          35.8715     STORAGE         
                 RCH =      234780.9276                   RCH =         238.3565     RCHA            
                 CHD =         313.8567                   CHD =           0.0000     CHD             

            TOTAL IN =      275564.8469              TOTAL IN =         274.2793

          OUT:                                     OUT:
          ----                                     ----
              STO-SS =          56.7029                STO-SS =       4.9798E-02     STORAGE         
              STO-SY =       36490.3456                STO-SY =          30.5367     STORAGE         
                 RCH =           0.0000                   RCH =           0.0000     RCHA            
                 CHD =      239019.7917                   CHD =         243.6957     CHD             

           TOTAL OUT =      275566.8401             TOTAL OUT =         274.2822

            IN - OUT =          -1.9932              IN - OUT =      -2.8509E-03

 PERCENT DISCREPANCY =          -0.00     PERCENT DISCREPANCY =          -0.00




         TIME SUMMARY AT END OF TIME STEP    4 IN STRESS PERIOD   49
                    SECONDS     MINUTES      HOURS       DAYS        YEARS
                    -----------------------------------------------------------
   TIME STEP LENGTH 2.59200E+05  4320.0      72.000      3.0000     8.21355E-03
 STRESS PERIOD TIME 1.03680E+06  17280.      288.00      12.000     3.28542E-02
         TOTAL TIME 1.22947E+08 2.04912E+06  34152.      1423.0      3.8960    
 UBDSV1 SAVING           STO-SS ON UNIT   1016 AT TIME STEP      5, STRESS PERIOD     49
 UBDSV1 SAVING           STO-SY ON UNIT   1016 AT TIME STEP      5, STRESS PERIOD     49
 UBDSV1 SAVING     FLOW-JA-FACE ON UNIT   1016 AT TIME STEP      5, STRESS PERIOD     49
 UBDSV06 SAVING              RCH IN MODEL TEST_TRANS       PACKAGE TEST_TRANS      CONNECTED TO MODEL TEST_TRANS       PACKAGE RCHA             ON UNIT   1016 AT TIME STEP      5, STRESS PERIOD     49
 UBDSV06 SAVING              CHD IN MODEL TEST_TRANS       PACKAGE TEST_TRANS      CONNECTED TO MODEL TEST_TRANS       PACKAGE CHD              ON UNIT   1016 AT TIME STEP      5, STRESS PERIOD     49

 HEAD WILL BE SAVED ON UNIT 1017 AT END OF TIME STEP    5, STRESS PERIOD   49


  VOLUME BUDGET FOR ENTIRE MODEL AT END OF TIME STEP    5, STRESS PERIOD  49
  ---------------------------------------------------------------------------------------------------

     CUMULATIVE VOLUME      L**3       RATES FOR THIS TIME STEP      L**3/T          PACKAGE NAME    
     ------------------                 ------------------------                     ----------------

           IN:                                      IN:
           ---                                      ---
              STO-SS =          63.2194                STO-SS =       3.9776E-02     STORAGE         
              STO-SY =       40489.8579                STO-SY =          27.6318     STORAGE         
                 RCH =      235495.9971                   RCH =         238.3565     RCHA            
                 CHD =         313.8567                   CHD =           0.0000     CHD             

            TOTAL IN =      276362.9311              TOTAL IN =         266.0281

          OUT:                                     OUT:
          ----                                     ----
              STO-SS =          56.8424                STO-SS =       4.6501E-02     STORAGE         
              STO-SY =       36575.7735                STO-SY =          28.4760     STORAGE         
                 RCH =           0.0000                   RCH =           0.0000     RCHA            
                 CHD =      239732.3134                   CHD =         237.5072     CHD             

           TOTAL OUT =      276364.9293             TOTAL OUT =         266.0297

            IN - OUT =          -1.9983              IN - OUT =      -1.6846E-03

 PERCENT DISCREPANCY =          -0.00     PERCENT DISCREPANCY =          -0.00




         TIME SUMMARY AT END OF TIME STEP    5 IN STRESS PERIOD   49
                    SECONDS     MINUTES      HOURS       DAYS        YEARS
                    -----------------------------------------------------------
   TIME STEP LENGTH 2.59200E+05  4320.0      72.000      3.0000     8.21355E-03
 STRESS PERIOD TIME 1.29600E+06  21600.      360.00      15.000     4.10678E-02
         TOTAL TIME 1.23206E+08 2.05344E+06  34224.      1426.0      3.9042    
 UBDSV1 SAVING           STO-SS ON UNIT   1016 AT TIME STEP      6, STRESS PERIOD     49
 UBDSV1 SAVING           STO-SY ON UNIT   1016 AT TIME STEP      6, STRESS PERIOD     49
 UBDSV1 SAVING     FLOW-JA-FACE ON UNIT   1016 AT TIME STEP      6, STRESS PERIOD     49
 UBDSV06 SAVING              RCH IN MODEL TEST_TRANS       PACKAGE TEST_TRANS      CONNECTED TO MODEL TEST_TRANS       PACKAGE RCHA             ON UNIT   1016 AT TIME STEP      6, STRESS PERIOD     49
 UBDSV06 SAVING              CHD IN MODEL TEST_TRANS       PACKAGE TEST_TRANS      CONNECTED TO MODEL TEST_TRANS       PACKAGE CHD              ON UNIT   1016 AT TIME STEP      6, STRESS PERIOD     49

 HEAD WILL BE SAVED ON UNIT 1017 AT END OF TIME STEP    6, STRESS PERIOD   49


  VOLUME BUDGET FOR ENTIRE MODEL AT END OF TIME STEP    6, STRESS PERIOD  49
  ---------------------------------------------------------------------------------------------------

     CUMULATIVE VOLUME      L**3       RATES FOR THIS TIME STEP      L**3/T          PACKAGE NAME    
     ------------------                 ------------------------                     ----------------

           IN:                                      IN:
           ---                                      ---
              STO-SS =          63.3130                STO-SS =       3.1208E-02     STORAGE         
              STO-SY =       40554.6737                STO-SY =          21.6053     STORAGE         
                 RCH =      236211.0666                   RCH =         238.3565     RCHA            
                 CHD =         313.8567                   CHD =           0.0000     CHD             

            TOTAL IN =      277142.9100              TOTAL IN =         259.9930

          OUT:                                     OUT:
          ----                                     ----
              STO-SS =          56.9730                STO-SS =       4.3550E-02     STORAGE         
              STO-SY =       36655.6867                STO-SY =          26.6377     STORAGE         
                 RCH =           0.0000                   RCH =           0.0000     RCHA            
                 CHD =      240432.2257                   CHD =         233.3041     CHD             

           TOTAL OUT =      277144.8855             TOTAL OUT =         259.9854

            IN - OUT =          -1.9754              IN - OUT =       7.6147E-03

 PERCENT DISCREPANCY =          -0.00     PERCENT DISCREPANCY =           0.00




         TIME SUMMARY AT END OF TIME STEP    6 IN STRESS PERIOD   49
                    SECONDS     MINUTES      HOURS       DAYS        YEARS
                    -----------------------------------------------------------
   TIME STEP LENGTH 2.59200E+05  4320.0      72.000      3.0000     8.21355E-03
 STRESS PERIOD TIME 1.55520E+06  25920.      432.00      18.000     4.92813E-02
         TOTAL TIME 1.23466E+08 2.05776E+06  34296.      1429.0      3.9124    
 UBDSV1 SAVING           STO-SS ON UNIT   1016 AT TIME STEP      7, STRESS PERIOD     49
 UBDSV1 SAVING           STO-SY ON UNIT   1016 AT TIME STEP      7, STRESS PERIOD     49
 UBDSV1 SAVING     FLOW-JA-FACE ON UNIT   1016 AT TIME STEP      7, STRESS PERIOD     49
 UBDSV06 SAVING              RCH IN MODEL TEST_TRANS       PACKAGE TEST_TRANS      CONNECTED TO MODEL TEST_TRANS       PACKAGE RCHA             ON UNIT   1016 AT TIME STEP      7, STRESS PERIOD     49
 UBDSV06 SAVING              CHD IN MODEL TEST_TRANS       PACKAGE TEST_TRANS      CONNECTED TO MODEL TEST_TRANS       PACKAGE CHD              ON UNIT   1016 AT TIME STEP      7, STRESS PERIOD     49

 HEAD WILL BE SAVED ON UNIT 1017 AT END OF TIME STEP    7, STRESS PERIOD   49


  VOLUME BUDGET FOR ENTIRE MODEL AT END OF TIME STEP    7, STRESS PERIOD  49
  ---------------------------------------------------------------------------------------------------

     CUMULATIVE VOLUME      L**3       RATES FOR THIS TIME STEP      L**3/T          PACKAGE NAME    
     ------------------                 ------------------------                     ----------------

           IN:                                      IN:
           ---                                      ---
              STO-SS =          63.3869                STO-SS =       2.4641E-02     STORAGE         
              STO-SY =       40605.7352                STO-SY =          17.0205     STORAGE         
                 RCH =      236926.1362                   RCH =         238.3565     RCHA            
                 CHD =         313.8567                   CHD =           0.0000     CHD             

            TOTAL IN =      277909.1150              TOTAL IN =         255.4016

          OUT:                                     OUT:
          ----                                     ----
              STO-SS =          57.0960                STO-SS =       4.0993E-02     STORAGE         
              STO-SY =       36730.8382                STO-SY =          25.0505     STORAGE         
                 RCH =           0.0000                   RCH =           0.0000     RCHA            
                 CHD =      241123.1378                   CHD =         230.3040     CHD             

           TOTAL OUT =      277911.0720             TOTAL OUT =         255.3955

            IN - OUT =          -1.9571              IN - OUT =       6.1181E-03

 PERCENT DISCREPANCY =          -0.00     PERCENT DISCREPANCY =           0.00




         TIME SUMMARY AT END OF TIME STEP    7 IN STRESS PERIOD   49
                    SECONDS     MINUTES      HOURS       DAYS        YEARS
                    -----------------------------------------------------------
   TIME STEP LENGTH 2.59200E+05  4320.0      72.000      3.0000     8.21355E-03
 STRESS PERIOD TIME 1.81440E+06  30240.      504.00      21.000     5.74949E-02
         TOTAL TIME 1.23725E+08 2.06208E+06  34368.      1432.0      3.9206    
 UBDSV1 SAVING           STO-SS ON UNIT   1016 AT TIME STEP      8, STRESS PERIOD     49
 UBDSV1 SAVING           STO-SY ON UNIT   1016 AT TIME STEP      8, STRESS PERIOD     49
 UBDSV1 SAVING     FLOW-JA-FACE ON UNIT   1016 AT TIME STEP      8, STRESS PERIOD     49
 UBDSV06 SAVING              RCH IN MODEL TEST_TRANS       PACKAGE TEST_TRANS      CONNECTED TO MODEL TEST_TRANS       PACKAGE RCHA             ON UNIT   1016 AT TIME STEP      8, STRESS PERIOD     49
 UBDSV06 SAVING              CHD IN MODEL TEST_TRANS       PACKAGE TEST_TRANS      CONNECTED TO MODEL TEST_TRANS       PACKAGE CHD              ON UNIT   1016 AT TIME STEP      8, STRESS PERIOD     49

 HEAD WILL BE SAVED ON UNIT 1017 AT END OF TIME STEP    8, STRESS PERIOD   49


  VOLUME BUDGET FOR ENTIRE MODEL AT END OF TIME STEP    8, STRESS PERIOD  49
  ---------------------------------------------------------------------------------------------------

     CUMULATIVE VOLUME      L**3       RATES FOR THIS TIME STEP      L**3/T          PACKAGE NAME    
     ------------------                 ------------------------                     ----------------

           IN:                                      IN:
           ---                                      ---
              STO-SS =          63.4453                STO-SS =       1.9456E-02     STORAGE         
              STO-SY =       40646.0003                STO-SY =          13.4217     STORAGE         
                 RCH =      237641.2057                   RCH =         238.3565     RCHA            
                 CHD =         313.8567                   CHD =           0.0000     CHD             

            TOTAL IN =      278664.5079              TOTAL IN =         251.7977

          OUT:                                     OUT:
          ----                                     ----
              STO-SS =          57.2123                STO-SS =       3.8760E-02     STORAGE         
              STO-SY =       36801.8454                STO-SY =          23.6691     STORAGE         
                 RCH =           0.0000                   RCH =           0.0000     RCHA            
                 CHD =      241807.3927                   CHD =         228.0850     CHD             

           TOTAL OUT =      278666.4504             TOTAL OUT =         251.7928

            IN - OUT =          -1.9425              IN - OUT =       4.8518E-03

 PERCENT DISCREPANCY =          -0.00     PERCENT DISCREPANCY =           0.00




         TIME SUMMARY AT END OF TIME STEP    8 IN STRESS PERIOD   49
                    SECONDS     MINUTES      HOURS       DAYS        YEARS
                    -----------------------------------------------------------
   TIME STEP LENGTH 2.59200E+05  4320.0      72.000      3.0000     8.21355E-03
 STRESS PERIOD TIME 2.07360E+06  34560.      576.00      24.000     6.57084E-02
         TOTAL TIME 1.23984E+08 2.06640E+06  34440.      1435.0      3.9288    
 UBDSV1 SAVING           STO-SS ON UNIT   1016 AT TIME STEP      9, STRESS PERIOD     49
 UBDSV1 SAVING           STO-SY ON UNIT   1016 AT TIME STEP      9, STRESS PERIOD     49
 UBDSV1 SAVING     FLOW-JA-FACE ON UNIT   1016 AT TIME STEP      9, STRESS PERIOD     49
 UBDSV06 SAVING              RCH IN MODEL TEST_TRANS       PACKAGE TEST_TRANS      CONNECTED TO MODEL TEST_TRANS       PACKAGE RCHA             ON UNIT   1016 AT TIME STEP      9, STRESS PERIOD     49
 UBDSV06 SAVING              CHD IN MODEL TEST_TRANS       PACKAGE TEST_TRANS      CONNECTED TO MODEL TEST_TRANS       PACKAGE CHD              ON UNIT   1016 AT TIME STEP      9, STRESS PERIOD     49

 HEAD WILL BE SAVED ON UNIT 1017 AT END OF TIME STEP    9, STRESS PERIOD   49


  VOLUME BUDGET FOR ENTIRE MODEL AT END OF TIME STEP    9, STRESS PERIOD  49
  ---------------------------------------------------------------------------------------------------

     CUMULATIVE VOLUME      L**3       RATES FOR THIS TIME STEP      L**3/T          PACKAGE NAME    
     ------------------                 ------------------------                     ----------------

           IN:                                      IN:
           ---                                      ---
              STO-SS =          63.4911                STO-SS =       1.5280E-02     STORAGE         
              STO-SY =       40677.6112                STO-SY =          10.5370     STORAGE         
                 RCH =      238356.2752                   RCH =         238.3565     RCHA            
                 CHD =         313.8567                   CHD =           0.0000     CHD             

            TOTAL IN =      279411.2343              TOTAL IN =         248.9088

          OUT:                                     OUT:
          ----                                     ----
              STO-SS =          57.3227                STO-SS =       3.6802E-02     STORAGE         
              STO-SY =       36869.2293                STO-SY =          22.4613     STORAGE         
                 RCH =           0.0000                   RCH =           0.0000     RCHA            
                 CHD =      242486.6073                   CHD =         226.4049     CHD             

           TOTAL OUT =      279413.1593             TOTAL OUT =         248.9029

            IN - OUT =          -1.9250              IN - OUT =       5.8329E-03

 PERCENT DISCREPANCY =          -0.00     PERCENT DISCREPANCY =           0.00




         TIME SUMMARY AT END OF TIME STEP    9 IN STRESS PERIOD   49
                    SECONDS     MINUTES      HOURS       DAYS        YEARS
                    -----------------------------------------------------------
   TIME STEP LENGTH 2.59200E+05  4320.0      72.000      3.0000     8.21355E-03
 STRESS PERIOD TIME 2.33280E+06  38880.      648.00      27.000     7.39220E-02
         TOTAL TIME 1.24243E+08 2.07072E+06  34512.      1438.0      3.9370    
 UBDSV1 SAVING           STO-SS ON UNIT   1016 AT TIME STEP     10, STRESS PERIOD     49
 UBDSV1 SAVING           STO-SY ON UNIT   1016 AT TIME STEP     10, STRESS PERIOD     49
 UBDSV1 SAVING     FLOW-JA-FACE ON UNIT   1016 AT TIME STEP     10, STRESS PERIOD     49
 UBDSV06 SAVING              RCH IN MODEL TEST_TRANS       PACKAGE TEST_TRANS      CONNECTED TO MODEL TEST_TRANS       PACKAGE RCHA             ON UNIT   1016 AT TIME STEP     10, STRESS PERIOD     49
 UBDSV06 SAVING              CHD IN MODEL TEST_TRANS       PACKAGE TEST_TRANS      CONNECTED TO MODEL TEST_TRANS       PACKAGE CHD              ON UNIT   1016 AT TIME STEP     10, STRESS PERIOD     49

 HEAD WILL BE SAVED ON UNIT 1017 AT END OF TIME STEP   10, STRESS PERIOD   49


  VOLUME BUDGET FOR ENTIRE MODEL AT END OF TIME STEP   10, STRESS PERIOD  49
  ---------------------------------------------------------------------------------------------------

     CUMULATIVE VOLUME      L**3       RATES FOR THIS TIME STEP      L**3/T          PACKAGE NAME    
     ------------------                 ------------------------                     ----------------

           IN:                                      IN:
           ---                                      ---
              STO-SS =          63.5268                STO-SS =       1.1913E-02     STORAGE         
              STO-SY =       40702.2632                STO-SY =           8.2173     STORAGE         
                 RCH =      239071.3448                   RCH =         238.3565     RCHA            
                 CHD =         313.8567                   CHD =           0.0000     CHD             

            TOTAL IN =      280150.9915              TOTAL IN =         246.5858

          OUT:                                     OUT:
          ----                                     ----
              STO-SS =          57.4281                STO-SS =       3.5128E-02     STORAGE         
              STO-SY =       36933.5234                STO-SY =          21.4314     STORAGE         
                 RCH =           0.0000                   RCH =           0.0000     RCHA            
                 CHD =      243161.9518                   CHD =         225.1148     CHD             

           TOTAL OUT =      280152.9033             TOTAL OUT =         246.5813

            IN - OUT =          -1.9118              IN - OUT =       4.4110E-03

 PERCENT DISCREPANCY =          -0.00     PERCENT DISCREPANCY =           0.00




         TIME SUMMARY AT END OF TIME STEP   10 IN STRESS PERIOD   49
                    SECONDS     MINUTES      HOURS       DAYS        YEARS
                    -----------------------------------------------------------
   TIME STEP LENGTH 2.59200E+05  4320.0      72.000      3.0000     8.21355E-03
 STRESS PERIOD TIME 2.59200E+06  43200.      720.00      30.000     8.21355E-02
         TOTAL TIME 1.24502E+08 2.07504E+06  34584.      1441.0      3.9452    

 OUTPUT CONTROL FOR STRESS PERIOD 50 IS REPEATED USING SETTINGS FROM A PREVIOUS STRESS PERIOD.


 STRESS PERIOD 50 IS TRANSIENT


                 RECHARGE =  0.3287670E-02
 UBDSV1 SAVING           STO-SS ON UNIT   1016 AT TIME STEP      1, STRESS PERIOD     50
 UBDSV1 SAVING           STO-SY ON UNIT   1016 AT TIME STEP      1, STRESS PERIOD     50
 UBDSV1 SAVING     FLOW-JA-FACE ON UNIT   1016 AT TIME STEP      1, STRESS PERIOD     50
 UBDSV06 SAVING              RCH IN MODEL TEST_TRANS       PACKAGE TEST_TRANS      CONNECTED TO MODEL TEST_TRANS       PACKAGE RCHA             ON UNIT   1016 AT TIME STEP      1, STRESS PERIOD     50
 UBDSV06 SAVING              CHD IN MODEL TEST_TRANS       PACKAGE TEST_TRANS      CONNECTED TO MODEL TEST_TRANS       PACKAGE CHD              ON UNIT   1016 AT TIME STEP      1, STRESS PERIOD     50

 HEAD WILL BE SAVED ON UNIT 1017 AT END OF TIME STEP    1, STRESS PERIOD   50


  VOLUME BUDGET FOR ENTIRE MODEL AT END OF TIME STEP    1, STRESS PERIOD  50
  ---------------------------------------------------------------------------------------------------

     CUMULATIVE VOLUME      L**3       RATES FOR THIS TIME STEP      L**3/T          PACKAGE NAME    
     ------------------                 ------------------------                     ----------------

           IN:                                      IN:
           ---                                      ---
              STO-SS =          63.5268                STO-SS =           0.0000     STORAGE         
              STO-SY =       40702.2632                STO-SY =           0.0000     STORAGE         
                 RCH =      239929.4266                   RCH =         286.0273     RCHA            
                 CHD =         313.8567                   CHD =           0.0000     CHD             

            TOTAL IN =      281009.0734              TOTAL IN =         286.0273

          OUT:                                     OUT:
          ----                                     ----
              STO-SS =          57.7791                STO-SS =           0.1170     STORAGE         
              STO-SY =       37158.5755                STO-SY =          75.0174     STORAGE         
                 RCH =           0.0000                   RCH =           0.0000     RCHA            
                 CHD =      243794.6209                   CHD =         210.8897     CHD             

           TOTAL OUT =      281010.9756             TOTAL OUT =         286.0241

            IN - OUT =          -1.9022              IN - OUT =       3.2040E-03

 PERCENT DISCREPANCY =          -0.00     PERCENT DISCREPANCY =           0.00




         TIME SUMMARY AT END OF TIME STEP    1 IN STRESS PERIOD   50
                    SECONDS     MINUTES      HOURS       DAYS        YEARS
                    -----------------------------------------------------------
   TIME STEP LENGTH 2.59200E+05  4320.0      72.000      3.0000     8.21355E-03
 STRESS PERIOD TIME 2.59200E+05  4320.0      72.000      3.0000     8.21355E-03
         TOTAL TIME 1.24762E+08 2.07936E+06  34656.      1444.0      3.9535    
 UBDSV1 SAVING           STO-SS ON UNIT   1016 AT TIME STEP      2, STRESS PERIOD     50
 UBDSV1 SAVING           STO-SY ON UNIT   1016 AT TIME STEP      2, STRESS PERIOD     50
 UBDSV1 SAVING     FLOW-JA-FACE ON UNIT   1016 AT TIME STEP      2, STRESS PERIOD     50
 UBDSV06 SAVING              RCH IN MODEL TEST_TRANS       PACKAGE TEST_TRANS      CONNECTED TO MODEL TEST_TRANS       PACKAGE RCHA             ON UNIT   1016 AT TIME STEP      2, STRESS PERIOD     50
 UBDSV06 SAVING              CHD IN MODEL TEST_TRANS       PACKAGE TEST_TRANS      CONNECTED TO MODEL TEST_TRANS       PACKAGE CHD              ON UNIT   1016 AT TIME STEP      2, STRESS PERIOD     50

 HEAD WILL BE SAVED ON UNIT 1017 AT END OF TIME STEP    2, STRESS PERIOD   50


  VOLUME BUDGET FOR ENTIRE MODEL AT END OF TIME STEP    2, STRESS PERIOD  50
  ---------------------------------------------------------------------------------------------------

     CUMULATIVE VOLUME      L**3       RATES FOR THIS TIME STEP      L**3/T          PACKAGE NAME    
     ------------------                 ------------------------                     ----------------

           IN:                                      IN:
           ---                                      ---
              STO-SS =          63.5268                STO-SS =           0.0000     STORAGE         
              STO-SY =       40702.2632                STO-SY =           0.0000     STORAGE         
                 RCH =      240787.5085                   RCH =         286.0273     RCHA            
                 CHD =         313.8567                   CHD =           0.0000     CHD             

            TOTAL IN =      281867.1553              TOTAL IN =         286.0273

          OUT:                                     OUT:
          ----                                     ----
              STO-SS =          58.1051                STO-SS =           0.1087     STORAGE         
              STO-SY =       37364.8270                STO-SY =          68.7505     STORAGE         
                 RCH =           0.0000                   RCH =           0.0000     RCHA            
                 CHD =      244446.1275                   CHD =         217.1689     CHD             

           TOTAL OUT =      281869.0597             TOTAL OUT =         286.0280

            IN - OUT =          -1.9044              IN - OUT =      -7.5768E-04

 PERCENT DISCREPANCY =          -0.00     PERCENT DISCREPANCY =          -0.00




         TIME SUMMARY AT END OF TIME STEP    2 IN STRESS PERIOD   50
                    SECONDS     MINUTES      HOURS       DAYS        YEARS
                    -----------------------------------------------------------
   TIME STEP LENGTH 2.59200E+05  4320.0      72.000      3.0000     8.21355E-03
 STRESS PERIOD TIME 5.18400E+05  8640.0      144.00      6.0000     1.64271E-02
         TOTAL TIME 1.25021E+08 2.08368E+06  34728.      1447.0      3.9617    
 UBDSV1 SAVING           STO-SS ON UNIT   1016 AT TIME STEP      3, STRESS PERIOD     50
 UBDSV1 SAVING           STO-SY ON UNIT   1016 AT TIME STEP      3, STRESS PERIOD     50
 UBDSV1 SAVING     FLOW-JA-FACE ON UNIT   1016 AT TIME STEP      3, STRESS PERIOD     50
 UBDSV06 SAVING              RCH IN MODEL TEST_TRANS       PACKAGE TEST_TRANS      CONNECTED TO MODEL TEST_TRANS       PACKAGE RCHA             ON UNIT   1016 AT TIME STEP      3, STRESS PERIOD     50
 UBDSV06 SAVING              CHD IN MODEL TEST_TRANS       PACKAGE TEST_TRANS      CONNECTED TO MODEL TEST_TRANS       PACKAGE CHD              ON UNIT   1016 AT TIME STEP      3, STRESS PERIOD     50

 HEAD WILL BE SAVED ON UNIT 1017 AT END OF TIME STEP    3, STRESS PERIOD   50


  VOLUME BUDGET FOR ENTIRE MODEL AT END OF TIME STEP    3, STRESS PERIOD  50
  ---------------------------------------------------------------------------------------------------

     CUMULATIVE VOLUME      L**3       RATES FOR THIS TIME STEP      L**3/T          PACKAGE NAME    
     ------------------                 ------------------------                     ----------------

           IN:                                      IN:
           ---                                      ---
              STO-SS =          63.5268                STO-SS =           0.0000     STORAGE         
              STO-SY =       40702.2632                STO-SY =           0.0000     STORAGE         
                 RCH =      241645.5904                   RCH =         286.0273     RCHA            
                 CHD =         313.8567                   CHD =           0.0000     CHD             

            TOTAL IN =      282725.2371              TOTAL IN =         286.0273

          OUT:                                     OUT:
          ----                                     ----
              STO-SS =          58.4182                STO-SS =           0.1044     STORAGE         
              STO-SY =       37561.7338                STO-SY =          65.6356     STORAGE         
                 RCH =           0.0000                   RCH =           0.0000     RCHA            
                 CHD =      245107.0008                   CHD =         220.2911     CHD             

           TOTAL OUT =      282727.1528             TOTAL OUT =         286.0310

            IN - OUT =          -1.9157              IN - OUT =      -3.7508E-03

 PERCENT DISCREPANCY =          -0.00     PERCENT DISCREPANCY =          -0.00




         TIME SUMMARY AT END OF TIME STEP    3 IN STRESS PERIOD   50
                    SECONDS     MINUTES      HOURS       DAYS        YEARS
                    -----------------------------------------------------------
   TIME STEP LENGTH 2.59200E+05  4320.0      72.000      3.0000     8.21355E-03
 STRESS PERIOD TIME 7.77600E+05  12960.      216.00      9.0000     2.46407E-02
         TOTAL TIME 1.25280E+08 2.08800E+06  34800.      1450.0      3.9699    
 UBDSV1 SAVING           STO-SS ON UNIT   1016 AT TIME STEP      4, STRESS PERIOD     50
 UBDSV1 SAVING           STO-SY ON UNIT   1016 AT TIME STEP      4, STRESS PERIOD     50
 UBDSV1 SAVING     FLOW-JA-FACE ON UNIT   1016 AT TIME STEP      4, STRESS PERIOD     50
 UBDSV06 SAVING              RCH IN MODEL TEST_TRANS       PACKAGE TEST_TRANS      CONNECTED TO MODEL TEST_TRANS       PACKAGE RCHA             ON UNIT   1016 AT TIME STEP      4, STRESS PERIOD     50
 UBDSV06 SAVING              CHD IN MODEL TEST_TRANS       PACKAGE TEST_TRANS      CONNECTED TO MODEL TEST_TRANS       PACKAGE CHD              ON UNIT   1016 AT TIME STEP      4, STRESS PERIOD     50

 HEAD WILL BE SAVED ON UNIT 1017 AT END OF TIME STEP    4, STRESS PERIOD   50


  VOLUME BUDGET FOR ENTIRE MODEL AT END OF TIME STEP    4, STRESS PERIOD  50
  ---------------------------------------------------------------------------------------------------

     CUMULATIVE VOLUME      L**3       RATES FOR THIS TIME STEP      L**3/T          PACKAGE NAME    
     ------------------                 ------------------------                     ----------------

           IN:                                      IN:
           ---                                      ---
              STO-SS =          63.5268                STO-SS =           0.0000     STORAGE         
              STO-SY =       40702.2632                STO-SY =           0.0000     STORAGE         
                 RCH =      242503.6722                   RCH =         286.0273     RCHA            
                 CHD =         313.8567                   CHD =           0.0000     CHD             

            TOTAL IN =      283583.3190              TOTAL IN =         286.0273

          OUT:                                     OUT:
          ----                                     ----
              STO-SS =          58.7227                STO-SS =           0.1015     STORAGE         
              STO-SY =       37752.6087                STO-SY =          63.6250     STORAGE         
                 RCH =           0.0000                   RCH =           0.0000     RCHA            
                 CHD =      245773.9275                   CHD =         222.3089     CHD             

           TOTAL OUT =      283585.2589             TOTAL OUT =         286.0354

            IN - OUT =          -1.9399              IN - OUT =      -8.0861E-03

 PERCENT DISCREPANCY =          -0.00     PERCENT DISCREPANCY =          -0.00




         TIME SUMMARY AT END OF TIME STEP    4 IN STRESS PERIOD   50
                    SECONDS     MINUTES      HOURS       DAYS        YEARS
                    -----------------------------------------------------------
   TIME STEP LENGTH 2.59200E+05  4320.0      72.000      3.0000     8.21355E-03
 STRESS PERIOD TIME 1.03680E+06  17280.      288.00      12.000     3.28542E-02
         TOTAL TIME 1.25539E+08 2.09232E+06  34872.      1453.0      3.9781    
 UBDSV1 SAVING           STO-SS ON UNIT   1016 AT TIME STEP      5, STRESS PERIOD     50
 UBDSV1 SAVING           STO-SY ON UNIT   1016 AT TIME STEP      5, STRESS PERIOD     50
 UBDSV1 SAVING     FLOW-JA-FACE ON UNIT   1016 AT TIME STEP      5, STRESS PERIOD     50
 UBDSV06 SAVING              RCH IN MODEL TEST_TRANS       PACKAGE TEST_TRANS      CONNECTED TO MODEL TEST_TRANS       PACKAGE RCHA             ON UNIT   1016 AT TIME STEP      5, STRESS PERIOD     50
 UBDSV06 SAVING              CHD IN MODEL TEST_TRANS       PACKAGE TEST_TRANS      CONNECTED TO MODEL TEST_TRANS       PACKAGE CHD              ON UNIT   1016 AT TIME STEP      5, STRESS PERIOD     50

 HEAD WILL BE SAVED ON UNIT 1017 AT END OF TIME STEP    5, STRESS PERIOD   50


  VOLUME BUDGET FOR ENTIRE MODEL AT END OF TIME STEP    5, STRESS PERIOD  50
  ---------------------------------------------------------------------------------------------------

     CUMULATIVE VOLUME      L**3       RATES FOR THIS TIME STEP      L**3/T          PACKAGE NAME    
     ------------------                 ------------------------                     ----------------

           IN:                                      IN:
           ---                                      ---
              STO-SS =          63.5268                STO-SS =           0.0000     STORAGE         
              STO-SY =       40702.2632                STO-SY =           0.0000     STORAGE         
                 RCH =      243361.7541                   RCH =         286.0273     RCHA            
                 CHD =         313.8567                   CHD =           0.0000     CHD             

            TOTAL IN =      284441.4009              TOTAL IN =         286.0273

          OUT:                                     OUT:
          ----                                     ----
              STO-SS =          59.0205                STO-SS =       9.9254E-02     STORAGE         
              STO-SY =       37938.8640                STO-SY =          62.0851     STORAGE         
                 RCH =           0.0000                   RCH =           0.0000     RCHA            
                 CHD =      246445.4791                   CHD =         223.8505     CHD             

           TOTAL OUT =      284443.3636             TOTAL OUT =         286.0349

            IN - OUT =          -1.9627              IN - OUT =      -7.5927E-03

 PERCENT DISCREPANCY =          -0.00     PERCENT DISCREPANCY =          -0.00




         TIME SUMMARY AT END OF TIME STEP    5 IN STRESS PERIOD   50
                    SECONDS     MINUTES      HOURS       DAYS        YEARS
                    -----------------------------------------------------------
   TIME STEP LENGTH 2.59200E+05  4320.0      72.000      3.0000     8.21355E-03
 STRESS PERIOD TIME 1.29600E+06  21600.      360.00      15.000     4.10678E-02
         TOTAL TIME 1.25798E+08 2.09664E+06  34944.      1456.0      3.9863    
 UBDSV1 SAVING           STO-SS ON UNIT   1016 AT TIME STEP      6, STRESS PERIOD     50
 UBDSV1 SAVING           STO-SY ON UNIT   1016 AT TIME STEP      6, STRESS PERIOD     50
 UBDSV1 SAVING     FLOW-JA-FACE ON UNIT   1016 AT TIME STEP      6, STRESS PERIOD     50
 UBDSV06 SAVING              RCH IN MODEL TEST_TRANS       PACKAGE TEST_TRANS      CONNECTED TO MODEL TEST_TRANS       PACKAGE RCHA             ON UNIT   1016 AT TIME STEP      6, STRESS PERIOD     50
 UBDSV06 SAVING              CHD IN MODEL TEST_TRANS       PACKAGE TEST_TRANS      CONNECTED TO MODEL TEST_TRANS       PACKAGE CHD              ON UNIT   1016 AT TIME STEP      6, STRESS PERIOD     50

 HEAD WILL BE SAVED ON UNIT 1017 AT END OF TIME STEP    6, STRESS PERIOD   50


  VOLUME BUDGET FOR ENTIRE MODEL AT END OF TIME STEP    6, STRESS PERIOD  50
  ---------------------------------------------------------------------------------------------------

     CUMULATIVE VOLUME      L**3       RATES FOR THIS TIME STEP      L**3/T          PACKAGE NAME    
     ------------------                 ------------------------                     ----------------

           IN:                                      IN:
           ---                                      ---
              STO-SS =          63.5268                STO-SS =           0.0000     STORAGE         
              STO-SY =       40702.2632                STO-SY =           0.0000     STORAGE         
                 RCH =      244219.8360                   RCH =         286.0273     RCHA            
                 CHD =         313.8567                   CHD =           0.0000     CHD             

            TOTAL IN =      285299.4827              TOTAL IN =         286.0273

          OUT:                                     OUT:
          ----                                     ----
              STO-SS =          59.3124                STO-SS =       9.7318E-02     STORAGE         
              STO-SY =       38121.2165                STO-SY =          60.7842     STORAGE         
                 RCH =           0.0000                   RCH =           0.0000     RCHA            
                 CHD =      247120.9382                   CHD =         225.1530     CHD             

           TOTAL OUT =      285301.4671             TOTAL OUT =         286.0345

            IN - OUT =          -1.9844              IN - OUT =      -7.2275E-03

 PERCENT DISCREPANCY =          -0.00     PERCENT DISCREPANCY =          -0.00




         TIME SUMMARY AT END OF TIME STEP    6 IN STRESS PERIOD   50
                    SECONDS     MINUTES      HOURS       DAYS        YEARS
                    -----------------------------------------------------------
   TIME STEP LENGTH 2.59200E+05  4320.0      72.000      3.0000     8.21355E-03
 STRESS PERIOD TIME 1.55520E+06  25920.      432.00      18.000     4.92813E-02
         TOTAL TIME 1.26058E+08 2.10096E+06  35016.      1459.0      3.9945    
 UBDSV1 SAVING           STO-SS ON UNIT   1016 AT TIME STEP      7, STRESS PERIOD     50
 UBDSV1 SAVING           STO-SY ON UNIT   1016 AT TIME STEP      7, STRESS PERIOD     50
 UBDSV1 SAVING     FLOW-JA-FACE ON UNIT   1016 AT TIME STEP      7, STRESS PERIOD     50
 UBDSV06 SAVING              RCH IN MODEL TEST_TRANS       PACKAGE TEST_TRANS      CONNECTED TO MODEL TEST_TRANS       PACKAGE RCHA             ON UNIT   1016 AT TIME STEP      7, STRESS PERIOD     50
 UBDSV06 SAVING              CHD IN MODEL TEST_TRANS       PACKAGE TEST_TRANS      CONNECTED TO MODEL TEST_TRANS       PACKAGE CHD              ON UNIT   1016 AT TIME STEP      7, STRESS PERIOD     50

 HEAD WILL BE SAVED ON UNIT 1017 AT END OF TIME STEP    7, STRESS PERIOD   50


  VOLUME BUDGET FOR ENTIRE MODEL AT END OF TIME STEP    7, STRESS PERIOD  50
  ---------------------------------------------------------------------------------------------------

     CUMULATIVE VOLUME      L**3       RATES FOR THIS TIME STEP      L**3/T          PACKAGE NAME    
     ------------------                 ------------------------                     ----------------

           IN:                                      IN:
           ---                                      ---
              STO-SS =          63.5268                STO-SS =           0.0000     STORAGE         
              STO-SY =       40702.2632                STO-SY =           0.0000     STORAGE         
                 RCH =      245077.9179                   RCH =         286.0273     RCHA            
                 CHD =         313.8567                   CHD =           0.0000     CHD             

            TOTAL IN =      286157.5646              TOTAL IN =         286.0273

          OUT:                                     OUT:
          ----                                     ----
              STO-SS =          59.5991                STO-SS =       9.5560E-02     STORAGE         
              STO-SY =       38300.0692                STO-SY =          59.6175     STORAGE         
                 RCH =           0.0000                   RCH =           0.0000     RCHA            
                 CHD =      247799.9016                   CHD =         226.3212     CHD             

           TOTAL OUT =      286159.5699             TOTAL OUT =         286.0343

            IN - OUT =          -2.0053              IN - OUT =      -6.9677E-03

 PERCENT DISCREPANCY =          -0.00     PERCENT DISCREPANCY =          -0.00




         TIME SUMMARY AT END OF TIME STEP    7 IN STRESS PERIOD   50
                    SECONDS     MINUTES      HOURS       DAYS        YEARS
                    -----------------------------------------------------------
   TIME STEP LENGTH 2.59200E+05  4320.0      72.000      3.0000     8.21355E-03
 STRESS PERIOD TIME 1.81440E+06  30240.      504.00      21.000     5.74949E-02
         TOTAL TIME 1.26317E+08 2.10528E+06  35088.      1462.0      4.0027    
 UBDSV1 SAVING           STO-SS ON UNIT   1016 AT TIME STEP      8, STRESS PERIOD     50
 UBDSV1 SAVING           STO-SY ON UNIT   1016 AT TIME STEP      8, STRESS PERIOD     50
 UBDSV1 SAVING     FLOW-JA-FACE ON UNIT   1016 AT TIME STEP      8, STRESS PERIOD     50
 UBDSV06 SAVING              RCH IN MODEL TEST_TRANS       PACKAGE TEST_TRANS      CONNECTED TO MODEL TEST_TRANS       PACKAGE RCHA             ON UNIT   1016 AT TIME STEP      8, STRESS PERIOD     50
 UBDSV06 SAVING              CHD IN MODEL TEST_TRANS       PACKAGE TEST_TRANS      CONNECTED TO MODEL TEST_TRANS       PACKAGE CHD              ON UNIT   1016 AT TIME STEP      8, STRESS PERIOD     50

 HEAD WILL BE SAVED ON UNIT 1017 AT END OF TIME STEP    8, STRESS PERIOD   50


  VOLUME BUDGET FOR ENTIRE MODEL AT END OF TIME STEP    8, STRESS PERIOD  50
  ---------------------------------------------------------------------------------------------------

     CUMULATIVE VOLUME      L**3       RATES FOR THIS TIME STEP      L**3/T          PACKAGE NAME    
     ------------------                 ------------------------                     ----------------

           IN:                                      IN:
           ---                                      ---
              STO-SS =          63.5268                STO-SS =           0.0000     STORAGE         
              STO-SY =       40702.2632                STO-SY =           0.0000     STORAGE         
                 RCH =      245935.9997                   RCH =         286.0273     RCHA            
                 CHD =         313.8567                   CHD =           0.0000     CHD             

            TOTAL IN =      287015.6465              TOTAL IN =         286.0273

          OUT:                                     OUT:
          ----                                     ----
              STO-SS =          59.8808                STO-SS =       9.3910E-02     STORAGE         
              STO-SY =       38475.6687                STO-SY =          58.5332     STORAGE         
                 RCH =           0.0000                   RCH =           0.0000     RCHA            
                 CHD =      248482.1226                   CHD =         227.4070     CHD             

           TOTAL OUT =      287017.6721             TOTAL OUT =         286.0341

            IN - OUT =          -2.0256              IN - OUT =      -6.7820E-03

 PERCENT DISCREPANCY =          -0.00     PERCENT DISCREPANCY =          -0.00




         TIME SUMMARY AT END OF TIME STEP    8 IN STRESS PERIOD   50
                    SECONDS     MINUTES      HOURS       DAYS        YEARS
                    -----------------------------------------------------------
   TIME STEP LENGTH 2.59200E+05  4320.0      72.000      3.0000     8.21355E-03
 STRESS PERIOD TIME 2.07360E+06  34560.      576.00      24.000     6.57084E-02
         TOTAL TIME 1.26576E+08 2.10960E+06  35160.      1465.0      4.0110    
 UBDSV1 SAVING           STO-SS ON UNIT   1016 AT TIME STEP      9, STRESS PERIOD     50
 UBDSV1 SAVING           STO-SY ON UNIT   1016 AT TIME STEP      9, STRESS PERIOD     50
 UBDSV1 SAVING     FLOW-JA-FACE ON UNIT   1016 AT TIME STEP      9, STRESS PERIOD     50
 UBDSV06 SAVING              RCH IN MODEL TEST_TRANS       PACKAGE TEST_TRANS      CONNECTED TO MODEL TEST_TRANS       PACKAGE RCHA             ON UNIT   1016 AT TIME STEP      9, STRESS PERIOD     50
 UBDSV06 SAVING              CHD IN MODEL TEST_TRANS       PACKAGE TEST_TRANS      CONNECTED TO MODEL TEST_TRANS       PACKAGE CHD              ON UNIT   1016 AT TIME STEP      9, STRESS PERIOD     50

 HEAD WILL BE SAVED ON UNIT 1017 AT END OF TIME STEP    9, STRESS PERIOD   50


  VOLUME BUDGET FOR ENTIRE MODEL AT END OF TIME STEP    9, STRESS PERIOD  50
  ---------------------------------------------------------------------------------------------------

     CUMULATIVE VOLUME      L**3       RATES FOR THIS TIME STEP      L**3/T          PACKAGE NAME    
     ------------------                 ------------------------                     ----------------

           IN:                                      IN:
           ---                                      ---
              STO-SS =          63.5268                STO-SS =           0.0000     STORAGE         
              STO-SY =       40702.2632                STO-SY =           0.0000     STORAGE         
                 RCH =      246794.0816                   RCH =         286.0273     RCHA            
                 CHD =         313.8567                   CHD =           0.0000     CHD             

            TOTAL IN =      287873.7284              TOTAL IN =         286.0273

          OUT:                                     OUT:
          ----                                     ----
              STO-SS =          60.1578                STO-SS =       9.2332E-02     STORAGE         
              STO-SY =       38648.1773                STO-SY =          57.5029     STORAGE         
                 RCH =           0.0000                   RCH =           0.0000     RCHA            
                 CHD =      249167.4388                   CHD =         228.4387     CHD             

           TOTAL OUT =      287875.7739             TOTAL OUT =         286.0339

            IN - OUT =          -2.0456              IN - OUT =      -6.6445E-03

 PERCENT DISCREPANCY =          -0.00     PERCENT DISCREPANCY =          -0.00




         TIME SUMMARY AT END OF TIME STEP    9 IN STRESS PERIOD   50
                    SECONDS     MINUTES      HOURS       DAYS        YEARS
                    -----------------------------------------------------------
   TIME STEP LENGTH 2.59200E+05  4320.0      72.000      3.0000     8.21355E-03
 STRESS PERIOD TIME 2.33280E+06  38880.      648.00      27.000     7.39220E-02
         TOTAL TIME 1.26835E+08 2.11392E+06  35232.      1468.0      4.0192    
 UBDSV1 SAVING           STO-SS ON UNIT   1016 AT TIME STEP     10, STRESS PERIOD     50
 UBDSV1 SAVING           STO-SY ON UNIT   1016 AT TIME STEP     10, STRESS PERIOD     50
 UBDSV1 SAVING     FLOW-JA-FACE ON UNIT   1016 AT TIME STEP     10, STRESS PERIOD     50
 UBDSV06 SAVING              RCH IN MODEL TEST_TRANS       PACKAGE TEST_TRANS      CONNECTED TO MODEL TEST_TRANS       PACKAGE RCHA             ON UNIT   1016 AT TIME STEP     10, STRESS PERIOD     50
 UBDSV06 SAVING              CHD IN MODEL TEST_TRANS       PACKAGE TEST_TRANS      CONNECTED TO MODEL TEST_TRANS       PACKAGE CHD              ON UNIT   1016 AT TIME STEP     10, STRESS PERIOD     50

 HEAD WILL BE SAVED ON UNIT 1017 AT END OF TIME STEP   10, STRESS PERIOD   50


  VOLUME BUDGET FOR ENTIRE MODEL AT END OF TIME STEP   10, STRESS PERIOD  50
  ---------------------------------------------------------------------------------------------------

     CUMULATIVE VOLUME      L**3       RATES FOR THIS TIME STEP      L**3/T          PACKAGE NAME    
     ------------------                 ------------------------                     ----------------

           IN:                                      IN:
           ---                                      ---
              STO-SS =          63.5268                STO-SS =           0.0000     STORAGE         
              STO-SY =       40702.2632                STO-SY =           0.0000     STORAGE         
                 RCH =      247652.1635                   RCH =         286.0273     RCHA            
                 CHD =         313.8567                   CHD =           0.0000     CHD             

            TOTAL IN =      288731.8102              TOTAL IN =         286.0273

          OUT:                                     OUT:
          ----                                     ----
              STO-SS =          60.4303                STO-SS =       9.0804E-02     STORAGE         
              STO-SY =       38817.7087                STO-SY =          56.5105     STORAGE         
                 RCH =           0.0000                   RCH =           0.0000     RCHA            
                 CHD =      249855.7365                   CHD =         229.4326     CHD             

           TOTAL OUT =      288733.8754             TOTAL OUT =         286.0338

            IN - OUT =          -2.0652              IN - OUT =      -6.5380E-03

 PERCENT DISCREPANCY =          -0.00     PERCENT DISCREPANCY =          -0.00




         TIME SUMMARY AT END OF TIME STEP   10 IN STRESS PERIOD   50
                    SECONDS     MINUTES      HOURS       DAYS        YEARS
                    -----------------------------------------------------------
   TIME STEP LENGTH 2.59200E+05  4320.0      72.000      3.0000     8.21355E-03
 STRESS PERIOD TIME 2.59200E+06  43200.      720.00      30.000     8.21355E-02
         TOTAL TIME 1.27094E+08 2.11824E+06  35304.      1471.0      4.0274    

 OUTPUT CONTROL FOR STRESS PERIOD 51 IS REPEATED USING SETTINGS FROM A PREVIOUS STRESS PERIOD.


 STRESS PERIOD 51 IS TRANSIENT


                 RECHARGE =  0.2465750E-02
 UBDSV1 SAVING           STO-SS ON UNIT   1016 AT TIME STEP      1, STRESS PERIOD     51
 UBDSV1 SAVING           STO-SY ON UNIT   1016 AT TIME STEP      1, STRESS PERIOD     51
 UBDSV1 SAVING     FLOW-JA-FACE ON UNIT   1016 AT TIME STEP      1, STRESS PERIOD     51
 UBDSV06 SAVING              RCH IN MODEL TEST_TRANS       PACKAGE TEST_TRANS      CONNECTED TO MODEL TEST_TRANS       PACKAGE RCHA             ON UNIT   1016 AT TIME STEP      1, STRESS PERIOD     51
 UBDSV06 SAVING              CHD IN MODEL TEST_TRANS       PACKAGE TEST_TRANS      CONNECTED TO MODEL TEST_TRANS       PACKAGE CHD              ON UNIT   1016 AT TIME STEP      1, STRESS PERIOD     51

 HEAD WILL BE SAVED ON UNIT 1017 AT END OF TIME STEP    1, STRESS PERIOD   51


  VOLUME BUDGET FOR ENTIRE MODEL AT END OF TIME STEP    1, STRESS PERIOD  51
  ---------------------------------------------------------------------------------------------------

     CUMULATIVE VOLUME      L**3       RATES FOR THIS TIME STEP      L**3/T          PACKAGE NAME    
     ------------------                 ------------------------                     ----------------

           IN:                                      IN:
           ---                                      ---
              STO-SS =          63.5499                STO-SS =       7.6839E-03     STORAGE         
              STO-SY =       40716.8924                STO-SY =           4.8764     STORAGE         
                 RCH =      248295.7242                   RCH =         214.5203     RCHA            
                 CHD =         313.8567                   CHD =           0.0000     CHD             

            TOTAL IN =      289390.0232              TOTAL IN =         219.4043

          OUT:                                     OUT:
          ----                                     ----
              STO-SS =          60.6273                STO-SS =       6.5669E-02     STORAGE         
              STO-SY =       38961.1595                STO-SY =          47.8169     STORAGE         
                 RCH =           0.0000                   RCH =           0.0000     RCHA            
                 CHD =      250370.2885                   CHD =         171.5174     CHD             

           TOTAL OUT =      289392.0753             TOTAL OUT =         219.4000

            IN - OUT =          -2.0522              IN - OUT =       4.3474E-03

 PERCENT DISCREPANCY =          -0.00     PERCENT DISCREPANCY =           0.00




         TIME SUMMARY AT END OF TIME STEP    1 IN STRESS PERIOD   51
                    SECONDS     MINUTES      HOURS       DAYS        YEARS
                    -----------------------------------------------------------
   TIME STEP LENGTH 2.59200E+05  4320.0      72.000      3.0000     8.21355E-03
 STRESS PERIOD TIME 2.59200E+05  4320.0      72.000      3.0000     8.21355E-03
         TOTAL TIME 1.27354E+08 2.12256E+06  35376.      1474.0      4.0356    
 UBDSV1 SAVING           STO-SS ON UNIT   1016 AT TIME STEP      2, STRESS PERIOD     51
 UBDSV1 SAVING           STO-SY ON UNIT   1016 AT TIME STEP      2, STRESS PERIOD     51
 UBDSV1 SAVING     FLOW-JA-FACE ON UNIT   1016 AT TIME STEP      2, STRESS PERIOD     51
 UBDSV06 SAVING              RCH IN MODEL TEST_TRANS       PACKAGE TEST_TRANS      CONNECTED TO MODEL TEST_TRANS       PACKAGE RCHA             ON UNIT   1016 AT TIME STEP      2, STRESS PERIOD     51
 UBDSV06 SAVING              CHD IN MODEL TEST_TRANS       PACKAGE TEST_TRANS      CONNECTED TO MODEL TEST_TRANS       PACKAGE CHD              ON UNIT   1016 AT TIME STEP      2, STRESS PERIOD     51

 HEAD WILL BE SAVED ON UNIT 1017 AT END OF TIME STEP    2, STRESS PERIOD   51


  VOLUME BUDGET FOR ENTIRE MODEL AT END OF TIME STEP    2, STRESS PERIOD  51
  ---------------------------------------------------------------------------------------------------

     CUMULATIVE VOLUME      L**3       RATES FOR THIS TIME STEP      L**3/T          PACKAGE NAME    
     ------------------                 ------------------------                     ----------------

           IN:                                      IN:
           ---                                      ---
              STO-SS =          63.5636                STO-SS =       4.5623E-03     STORAGE         
              STO-SY =       40725.4703                STO-SY =           2.8593     STORAGE         
                 RCH =      248939.2850                   RCH =         214.5203     RCHA            
                 CHD =         313.8567                   CHD =           0.0000     CHD             

            TOTAL IN =      290042.1756              TOTAL IN =         217.3841

          OUT:                                     OUT:
          ----                                     ----
              STO-SS =          60.7389                STO-SS =       3.7203E-02     STORAGE         
              STO-SY =       39040.5363                STO-SY =          26.4589     STORAGE         
                 RCH =           0.0000                   RCH =           0.0000     RCHA            
                 CHD =      250942.9445                   CHD =         190.8853     CHD             

           TOTAL OUT =      290044.2197             TOTAL OUT =         217.3815

            IN - OUT =          -2.0442              IN - OUT =       2.6637E-03

 PERCENT DISCREPANCY =          -0.00     PERCENT DISCREPANCY =           0.00




         TIME SUMMARY AT END OF TIME STEP    2 IN STRESS PERIOD   51
                    SECONDS     MINUTES      HOURS       DAYS        YEARS
                    -----------------------------------------------------------
   TIME STEP LENGTH 2.59200E+05  4320.0      72.000      3.0000     8.21355E-03
 STRESS PERIOD TIME 5.18400E+05  8640.0      144.00      6.0000     1.64271E-02
         TOTAL TIME 1.27613E+08 2.12688E+06  35448.      1477.0      4.0438    
 UBDSV1 SAVING           STO-SS ON UNIT   1016 AT TIME STEP      3, STRESS PERIOD     51
 UBDSV1 SAVING           STO-SY ON UNIT   1016 AT TIME STEP      3, STRESS PERIOD     51
 UBDSV1 SAVING     FLOW-JA-FACE ON UNIT   1016 AT TIME STEP      3, STRESS PERIOD     51
 UBDSV06 SAVING              RCH IN MODEL TEST_TRANS       PACKAGE TEST_TRANS      CONNECTED TO MODEL TEST_TRANS       PACKAGE RCHA             ON UNIT   1016 AT TIME STEP      3, STRESS PERIOD     51
 UBDSV06 SAVING              CHD IN MODEL TEST_TRANS       PACKAGE TEST_TRANS      CONNECTED TO MODEL TEST_TRANS       PACKAGE CHD              ON UNIT   1016 AT TIME STEP      3, STRESS PERIOD     51

 HEAD WILL BE SAVED ON UNIT 1017 AT END OF TIME STEP    3, STRESS PERIOD   51


  VOLUME BUDGET FOR ENTIRE MODEL AT END OF TIME STEP    3, STRESS PERIOD  51
  ---------------------------------------------------------------------------------------------------

     CUMULATIVE VOLUME      L**3       RATES FOR THIS TIME STEP      L**3/T          PACKAGE NAME    
     ------------------                 ------------------------                     ----------------

           IN:                                      IN:
           ---                                      ---
              STO-SS =          63.5717                STO-SS =       2.6992E-03     STORAGE         
              STO-SY =       40730.5007                STO-SY =           1.6768     STORAGE         
                 RCH =      249582.8457                   RCH =         214.5203     RCHA            
                 CHD =         313.8567                   CHD =           0.0000     CHD             

            TOTAL IN =      290690.7748              TOTAL IN =         216.1997

          OUT:                                     OUT:
          ----                                     ----
              STO-SS =          60.8139                STO-SS =       2.4996E-02     STORAGE         
              STO-SY =       39093.0354                STO-SY =          17.4997     STORAGE         
                 RCH =           0.0000                   RCH =           0.0000     RCHA            
                 CHD =      251538.9702                   CHD =         198.6752     CHD             

           TOTAL OUT =      290692.8195             TOTAL OUT =         216.1999

            IN - OUT =          -2.0447              IN - OUT =      -1.8795E-04

 PERCENT DISCREPANCY =          -0.00     PERCENT DISCREPANCY =          -0.00




         TIME SUMMARY AT END OF TIME STEP    3 IN STRESS PERIOD   51
                    SECONDS     MINUTES      HOURS       DAYS        YEARS
                    -----------------------------------------------------------
   TIME STEP LENGTH 2.59200E+05  4320.0      72.000      3.0000     8.21355E-03
 STRESS PERIOD TIME 7.77600E+05  12960.      216.00      9.0000     2.46407E-02
         TOTAL TIME 1.27872E+08 2.13120E+06  35520.      1480.0      4.0520    
 UBDSV1 SAVING           STO-SS ON UNIT   1016 AT TIME STEP      4, STRESS PERIOD     51
 UBDSV1 SAVING           STO-SY ON UNIT   1016 AT TIME STEP      4, STRESS PERIOD     51
 UBDSV1 SAVING     FLOW-JA-FACE ON UNIT   1016 AT TIME STEP      4, STRESS PERIOD     51
 UBDSV06 SAVING              RCH IN MODEL TEST_TRANS       PACKAGE TEST_TRANS      CONNECTED TO MODEL TEST_TRANS       PACKAGE RCHA             ON UNIT   1016 AT TIME STEP      4, STRESS PERIOD     51
 UBDSV06 SAVING              CHD IN MODEL TEST_TRANS       PACKAGE TEST_TRANS      CONNECTED TO MODEL TEST_TRANS       PACKAGE CHD              ON UNIT   1016 AT TIME STEP      4, STRESS PERIOD     51

 HEAD WILL BE SAVED ON UNIT 1017 AT END OF TIME STEP    4, STRESS PERIOD   51


  VOLUME BUDGET FOR ENTIRE MODEL AT END OF TIME STEP    4, STRESS PERIOD  51
  ---------------------------------------------------------------------------------------------------

     CUMULATIVE VOLUME      L**3       RATES FOR THIS TIME STEP      L**3/T          PACKAGE NAME    
     ------------------                 ------------------------                     ----------------

           IN:                                      IN:
           ---                                      ---
              STO-SS =          63.5763                STO-SS =       1.5291E-03     STORAGE         
              STO-SY =       40733.3323                STO-SY =           0.9439     STORAGE         
                 RCH =      250226.4065                   RCH =         214.5203     RCHA            
                 CHD =         313.8567                   CHD =           0.0000     CHD             

            TOTAL IN =      291337.1717              TOTAL IN =         215.4657

          OUT:                                     OUT:
          ----                                     ----
              STO-SS =          60.8695                STO-SS =       1.8536E-02     STORAGE         
              STO-SY =       39131.5156                STO-SY =          12.8267     STORAGE         
                 RCH =           0.0000                   RCH =           0.0000     RCHA            
                 CHD =      252146.8370                   CHD =         202.6222     CHD             

           TOTAL OUT =      291339.2220             TOTAL OUT =         215.4675

            IN - OUT =          -2.0503              IN - OUT =      -1.8476E-03

 PERCENT DISCREPANCY =          -0.00     PERCENT DISCREPANCY =          -0.00




         TIME SUMMARY AT END OF TIME STEP    4 IN STRESS PERIOD   51
                    SECONDS     MINUTES      HOURS       DAYS        YEARS
                    -----------------------------------------------------------
   TIME STEP LENGTH 2.59200E+05  4320.0      72.000      3.0000     8.21355E-03
 STRESS PERIOD TIME 1.03680E+06  17280.      288.00      12.000     3.28542E-02
         TOTAL TIME 1.28131E+08 2.13552E+06  35592.      1483.0      4.0602    
 UBDSV1 SAVING           STO-SS ON UNIT   1016 AT TIME STEP      5, STRESS PERIOD     51
 UBDSV1 SAVING           STO-SY ON UNIT   1016 AT TIME STEP      5, STRESS PERIOD     51
 UBDSV1 SAVING     FLOW-JA-FACE ON UNIT   1016 AT TIME STEP      5, STRESS PERIOD     51
 UBDSV06 SAVING              RCH IN MODEL TEST_TRANS       PACKAGE TEST_TRANS      CONNECTED TO MODEL TEST_TRANS       PACKAGE RCHA             ON UNIT   1016 AT TIME STEP      5, STRESS PERIOD     51
 UBDSV06 SAVING              CHD IN MODEL TEST_TRANS       PACKAGE TEST_TRANS      CONNECTED TO MODEL TEST_TRANS       PACKAGE CHD              ON UNIT   1016 AT TIME STEP      5, STRESS PERIOD     51

 HEAD WILL BE SAVED ON UNIT 1017 AT END OF TIME STEP    5, STRESS PERIOD   51


  VOLUME BUDGET FOR ENTIRE MODEL AT END OF TIME STEP    5, STRESS PERIOD  51
  ---------------------------------------------------------------------------------------------------

     CUMULATIVE VOLUME      L**3       RATES FOR THIS TIME STEP      L**3/T          PACKAGE NAME    
     ------------------                 ------------------------                     ----------------

           IN:                                      IN:
           ---                                      ---
              STO-SS =          63.5785                STO-SS =       7.5331E-04     STORAGE         
              STO-SY =       40734.7195                STO-SY =           0.4624     STORAGE         
                 RCH =      250869.9672                   RCH =         214.5203     RCHA            
                 CHD =         313.8567                   CHD =           0.0000     CHD             

            TOTAL IN =      291982.1219              TOTAL IN =         214.9834

          OUT:                                     OUT:
          ----                                     ----
              STO-SS =          60.9133                STO-SS =       1.4602E-02     STORAGE         
              STO-SY =       39161.5512                STO-SY =          10.0119     STORAGE         
                 RCH =           0.0000                   RCH =           0.0000     RCHA            
                 CHD =      252761.7209                   CHD =         204.9613     CHD             

           TOTAL OUT =      291984.1854             TOTAL OUT =         214.9878

            IN - OUT =          -2.0635              IN - OUT =      -4.3991E-03

 PERCENT DISCREPANCY =          -0.00     PERCENT DISCREPANCY =          -0.00




         TIME SUMMARY AT END OF TIME STEP    5 IN STRESS PERIOD   51
                    SECONDS     MINUTES      HOURS       DAYS        YEARS
                    -----------------------------------------------------------
   TIME STEP LENGTH 2.59200E+05  4320.0      72.000      3.0000     8.21355E-03
 STRESS PERIOD TIME 1.29600E+06  21600.      360.00      15.000     4.10678E-02
         TOTAL TIME 1.28390E+08 2.13984E+06  35664.      1486.0      4.0684    
 UBDSV1 SAVING           STO-SS ON UNIT   1016 AT TIME STEP      6, STRESS PERIOD     51
 UBDSV1 SAVING           STO-SY ON UNIT   1016 AT TIME STEP      6, STRESS PERIOD     51
 UBDSV1 SAVING     FLOW-JA-FACE ON UNIT   1016 AT TIME STEP      6, STRESS PERIOD     51
 UBDSV06 SAVING              RCH IN MODEL TEST_TRANS       PACKAGE TEST_TRANS      CONNECTED TO MODEL TEST_TRANS       PACKAGE RCHA             ON UNIT   1016 AT TIME STEP      6, STRESS PERIOD     51
 UBDSV06 SAVING              CHD IN MODEL TEST_TRANS       PACKAGE TEST_TRANS      CONNECTED TO MODEL TEST_TRANS       PACKAGE CHD              ON UNIT   1016 AT TIME STEP      6, STRESS PERIOD     51

 HEAD WILL BE SAVED ON UNIT 1017 AT END OF TIME STEP    6, STRESS PERIOD   51


  VOLUME BUDGET FOR ENTIRE MODEL AT END OF TIME STEP    6, STRESS PERIOD  51
  ---------------------------------------------------------------------------------------------------

     CUMULATIVE VOLUME      L**3       RATES FOR THIS TIME STEP      L**3/T          PACKAGE NAME    
     ------------------                 ------------------------                     ----------------

           IN:                                      IN:
           ---                                      ---
              STO-SS =          63.5794                STO-SS =       2.7877E-04     STORAGE         
              STO-SY =       40735.2303                STO-SY =           0.1703     STORAGE         
                 RCH =      251513.5280                   RCH =         214.5203     RCHA            
                 CHD =         313.8567                   CHD =           0.0000     CHD             

            TOTAL IN =      292626.1943              TOTAL IN =         214.6908

          OUT:                                     OUT:
          ----                                     ----
              STO-SS =          60.9494                STO-SS =       1.2038E-02     STORAGE         
              STO-SY =       39186.1124                STO-SY =           8.1871     STORAGE         
                 RCH =           0.0000                   RCH =           0.0000     RCHA            
                 CHD =      253381.2065                   CHD =         206.4952     CHD             

           TOTAL OUT =      292628.2683             TOTAL OUT =         214.6943

            IN - OUT =          -2.0740              IN - OUT =      -3.5146E-03

 PERCENT DISCREPANCY =          -0.00     PERCENT DISCREPANCY =          -0.00




         TIME SUMMARY AT END OF TIME STEP    6 IN STRESS PERIOD   51
                    SECONDS     MINUTES      HOURS       DAYS        YEARS
                    -----------------------------------------------------------
   TIME STEP LENGTH 2.59200E+05  4320.0      72.000      3.0000     8.21355E-03
 STRESS PERIOD TIME 1.55520E+06  25920.      432.00      18.000     4.92813E-02
         TOTAL TIME 1.28650E+08 2.14416E+06  35736.      1489.0      4.0767    
 UBDSV1 SAVING           STO-SS ON UNIT   1016 AT TIME STEP      7, STRESS PERIOD     51
 UBDSV1 SAVING           STO-SY ON UNIT   1016 AT TIME STEP      7, STRESS PERIOD     51
 UBDSV1 SAVING     FLOW-JA-FACE ON UNIT   1016 AT TIME STEP      7, STRESS PERIOD     51
 UBDSV06 SAVING              RCH IN MODEL TEST_TRANS       PACKAGE TEST_TRANS      CONNECTED TO MODEL TEST_TRANS       PACKAGE RCHA             ON UNIT   1016 AT TIME STEP      7, STRESS PERIOD     51
 UBDSV06 SAVING              CHD IN MODEL TEST_TRANS       PACKAGE TEST_TRANS      CONNECTED TO MODEL TEST_TRANS       PACKAGE CHD              ON UNIT   1016 AT TIME STEP      7, STRESS PERIOD     51

 HEAD WILL BE SAVED ON UNIT 1017 AT END OF TIME STEP    7, STRESS PERIOD   51


  VOLUME BUDGET FOR ENTIRE MODEL AT END OF TIME STEP    7, STRESS PERIOD  51
  ---------------------------------------------------------------------------------------------------

     CUMULATIVE VOLUME      L**3       RATES FOR THIS TIME STEP      L**3/T          PACKAGE NAME    
     ------------------                 ------------------------                     ----------------

           IN:                                      IN:
           ---                                      ---
              STO-SS =          63.5795                STO-SS =       3.1186E-05     STORAGE         
              STO-SY =       40735.2871                STO-SY =       1.8956E-02     STORAGE         
                 RCH =      252157.0887                   RCH =         214.5203     RCHA            
                 CHD =         313.8567                   CHD =           0.0000     CHD             

            TOTAL IN =      293269.8120              TOTAL IN =         214.5392

          OUT:                                     OUT:
          ----                                     ----
              STO-SS =          60.9803                STO-SS =       1.0312E-02     STORAGE         
              STO-SY =       39206.9898                STO-SY =           6.9591     STORAGE         
                 RCH =           0.0000                   RCH =           0.0000     RCHA            
                 CHD =      254003.9256                   CHD =         207.5730     CHD             

           TOTAL OUT =      293271.8958             TOTAL OUT =         214.5425

            IN - OUT =          -2.0837              IN - OUT =      -3.2456E-03

 PERCENT DISCREPANCY =          -0.00     PERCENT DISCREPANCY =          -0.00




         TIME SUMMARY AT END OF TIME STEP    7 IN STRESS PERIOD   51
                    SECONDS     MINUTES      HOURS       DAYS        YEARS
                    -----------------------------------------------------------
   TIME STEP LENGTH 2.59200E+05  4320.0      72.000      3.0000     8.21355E-03
 STRESS PERIOD TIME 1.81440E+06  30240.      504.00      21.000     5.74949E-02
         TOTAL TIME 1.28909E+08 2.14848E+06  35808.      1492.0      4.0849    
 UBDSV1 SAVING           STO-SS ON UNIT   1016 AT TIME STEP      8, STRESS PERIOD     51
 UBDSV1 SAVING           STO-SY ON UNIT   1016 AT TIME STEP      8, STRESS PERIOD     51
 UBDSV1 SAVING     FLOW-JA-FACE ON UNIT   1016 AT TIME STEP      8, STRESS PERIOD     51
 UBDSV06 SAVING              RCH IN MODEL TEST_TRANS       PACKAGE TEST_TRANS      CONNECTED TO MODEL TEST_TRANS       PACKAGE RCHA             ON UNIT   1016 AT TIME STEP      8, STRESS PERIOD     51
 UBDSV06 SAVING              CHD IN MODEL TEST_TRANS       PACKAGE TEST_TRANS      CONNECTED TO MODEL TEST_TRANS       PACKAGE CHD              ON UNIT   1016 AT TIME STEP      8, STRESS PERIOD     51

 HEAD WILL BE SAVED ON UNIT 1017 AT END OF TIME STEP    8, STRESS PERIOD   51


  VOLUME BUDGET FOR ENTIRE MODEL AT END OF TIME STEP    8, STRESS PERIOD  51
  ---------------------------------------------------------------------------------------------------

     CUMULATIVE VOLUME      L**3       RATES FOR THIS TIME STEP      L**3/T          PACKAGE NAME    
     ------------------                 ------------------------                     ----------------

           IN:                                      IN:
           ---                                      ---
              STO-SS =          63.5795                STO-SS =           0.0000     STORAGE         
              STO-SY =       40735.2871                STO-SY =           0.0000     STORAGE         
                 RCH =      252800.6495                   RCH =         214.5203     RCHA            
                 CHD =         313.8567                   CHD =           0.0000     CHD             

            TOTAL IN =      293913.3728              TOTAL IN =         214.5203

          OUT:                                     OUT:
          ----                                     ----
              STO-SS =          61.0079                STO-SS =       9.1819E-03     STORAGE         
              STO-SY =       39225.4236                STO-SY =           6.1446     STORAGE         
                 RCH =           0.0000                   RCH =           0.0000     RCHA            
                 CHD =      254629.0330                   CHD =         208.3691     CHD             

           TOTAL OUT =      293915.4644             TOTAL OUT =         214.5229

            IN - OUT =          -2.0917              IN - OUT =      -2.6441E-03

 PERCENT DISCREPANCY =          -0.00     PERCENT DISCREPANCY =          -0.00




         TIME SUMMARY AT END OF TIME STEP    8 IN STRESS PERIOD   51
                    SECONDS     MINUTES      HOURS       DAYS        YEARS
                    -----------------------------------------------------------
   TIME STEP LENGTH 2.59200E+05  4320.0      72.000      3.0000     8.21355E-03
 STRESS PERIOD TIME 2.07360E+06  34560.      576.00      24.000     6.57084E-02
         TOTAL TIME 1.29168E+08 2.15280E+06  35880.      1495.0      4.0931    
 UBDSV1 SAVING           STO-SS ON UNIT   1016 AT TIME STEP      9, STRESS PERIOD     51
 UBDSV1 SAVING           STO-SY ON UNIT   1016 AT TIME STEP      9, STRESS PERIOD     51
 UBDSV1 SAVING     FLOW-JA-FACE ON UNIT   1016 AT TIME STEP      9, STRESS PERIOD     51
 UBDSV06 SAVING              RCH IN MODEL TEST_TRANS       PACKAGE TEST_TRANS      CONNECTED TO MODEL TEST_TRANS       PACKAGE RCHA             ON UNIT   1016 AT TIME STEP      9, STRESS PERIOD     51
 UBDSV06 SAVING              CHD IN MODEL TEST_TRANS       PACKAGE TEST_TRANS      CONNECTED TO MODEL TEST_TRANS       PACKAGE CHD              ON UNIT   1016 AT TIME STEP      9, STRESS PERIOD     51

 HEAD WILL BE SAVED ON UNIT 1017 AT END OF TIME STEP    9, STRESS PERIOD   51


  VOLUME BUDGET FOR ENTIRE MODEL AT END OF TIME STEP    9, STRESS PERIOD  51
  ---------------------------------------------------------------------------------------------------

     CUMULATIVE VOLUME      L**3       RATES FOR THIS TIME STEP      L**3/T          PACKAGE NAME    
     ------------------                 ------------------------                     ----------------

           IN:                                      IN:
           ---                                      ---
              STO-SS =          63.5795                STO-SS =           0.0000     STORAGE         
              STO-SY =       40735.2871                STO-SY =           0.0000     STORAGE         
                 RCH =      253444.2102                   RCH =         214.5203     RCHA            
                 CHD =         313.8567                   CHD =           0.0000     CHD             

            TOTAL IN =      294556.9335              TOTAL IN =         214.5203

          OUT:                                     OUT:
          ----                                     ----
              STO-SS =          61.0329                STO-SS =       8.3337E-03     STORAGE         
              STO-SY =       39242.0267                STO-SY =           5.5344     STORAGE         
                 RCH =           0.0000                   RCH =           0.0000     RCHA            
                 CHD =      255255.9722                   CHD =         208.9797     CHD             

           TOTAL OUT =      294559.0317             TOTAL OUT =         214.5224

            IN - OUT =          -2.0982              IN - OUT =      -2.1848E-03

 PERCENT DISCREPANCY =          -0.00     PERCENT DISCREPANCY =          -0.00




         TIME SUMMARY AT END OF TIME STEP    9 IN STRESS PERIOD   51
                    SECONDS     MINUTES      HOURS       DAYS        YEARS
                    -----------------------------------------------------------
   TIME STEP LENGTH 2.59200E+05  4320.0      72.000      3.0000     8.21355E-03
 STRESS PERIOD TIME 2.33280E+06  38880.      648.00      27.000     7.39220E-02
         TOTAL TIME 1.29427E+08 2.15712E+06  35952.      1498.0      4.1013    
 UBDSV1 SAVING           STO-SS ON UNIT   1016 AT TIME STEP     10, STRESS PERIOD     51
 UBDSV1 SAVING           STO-SY ON UNIT   1016 AT TIME STEP     10, STRESS PERIOD     51
 UBDSV1 SAVING     FLOW-JA-FACE ON UNIT   1016 AT TIME STEP     10, STRESS PERIOD     51
 UBDSV06 SAVING              RCH IN MODEL TEST_TRANS       PACKAGE TEST_TRANS      CONNECTED TO MODEL TEST_TRANS       PACKAGE RCHA             ON UNIT   1016 AT TIME STEP     10, STRESS PERIOD     51
 UBDSV06 SAVING              CHD IN MODEL TEST_TRANS       PACKAGE TEST_TRANS      CONNECTED TO MODEL TEST_TRANS       PACKAGE CHD              ON UNIT   1016 AT TIME STEP     10, STRESS PERIOD     51

 HEAD WILL BE SAVED ON UNIT 1017 AT END OF TIME STEP   10, STRESS PERIOD   51


  VOLUME BUDGET FOR ENTIRE MODEL AT END OF TIME STEP   10, STRESS PERIOD  51
  ---------------------------------------------------------------------------------------------------

     CUMULATIVE VOLUME      L**3       RATES FOR THIS TIME STEP      L**3/T          PACKAGE NAME    
     ------------------                 ------------------------                     ----------------

           IN:                                      IN:
           ---                                      ---
              STO-SS =          63.5795                STO-SS =           0.0000     STORAGE         
              STO-SY =       40735.2871                STO-SY =           0.0000     STORAGE         
                 RCH =      254087.7710                   RCH =         214.5203     RCHA            
                 CHD =         313.8567                   CHD =           0.0000     CHD             

            TOTAL IN =      295200.4943              TOTAL IN =         214.5203

          OUT:                                     OUT:
          ----                                     ----
              STO-SS =          61.0560                STO-SS =       7.6968E-03     STORAGE         
              STO-SY =       39257.2563                STO-SY =           5.0766     STORAGE         
                 RCH =           0.0000                   RCH =           0.0000     RCHA            
                 CHD =      255884.3583                   CHD =         209.4620     CHD             

           TOTAL OUT =      295202.6705             TOTAL OUT =         214.5463

            IN - OUT =          -2.1763              IN - OUT =      -2.6016E-02

 PERCENT DISCREPANCY =          -0.00     PERCENT DISCREPANCY =          -0.01




         TIME SUMMARY AT END OF TIME STEP   10 IN STRESS PERIOD   51
                    SECONDS     MINUTES      HOURS       DAYS        YEARS
                    -----------------------------------------------------------
   TIME STEP LENGTH 2.59200E+05  4320.0      72.000      3.0000     8.21355E-03
 STRESS PERIOD TIME 2.59200E+06  43200.      720.00      30.000     8.21355E-02
         TOTAL TIME 1.29686E+08 2.16144E+06  36024.      1501.0      4.1095    

 OUTPUT CONTROL FOR STRESS PERIOD 52 IS REPEATED USING SETTINGS FROM A PREVIOUS STRESS PERIOD.


 STRESS PERIOD 52 IS TRANSIENT


                 RECHARGE =  0.1643840E-02
 UBDSV1 SAVING           STO-SS ON UNIT   1016 AT TIME STEP      1, STRESS PERIOD     52
 UBDSV1 SAVING           STO-SY ON UNIT   1016 AT TIME STEP      1, STRESS PERIOD     52
 UBDSV1 SAVING     FLOW-JA-FACE ON UNIT   1016 AT TIME STEP      1, STRESS PERIOD     52
 UBDSV06 SAVING              RCH IN MODEL TEST_TRANS       PACKAGE TEST_TRANS      CONNECTED TO MODEL TEST_TRANS       PACKAGE RCHA             ON UNIT   1016 AT TIME STEP      1, STRESS PERIOD     52
 UBDSV06 SAVING              CHD IN MODEL TEST_TRANS       PACKAGE TEST_TRANS      CONNECTED TO MODEL TEST_TRANS       PACKAGE CHD              ON UNIT   1016 AT TIME STEP      1, STRESS PERIOD     52

 HEAD WILL BE SAVED ON UNIT 1017 AT END OF TIME STEP    1, STRESS PERIOD   52


  VOLUME BUDGET FOR ENTIRE MODEL AT END OF TIME STEP    1, STRESS PERIOD  52
  ---------------------------------------------------------------------------------------------------

     CUMULATIVE VOLUME      L**3       RATES FOR THIS TIME STEP      L**3/T          PACKAGE NAME    
     ------------------                 ------------------------                     ----------------

           IN:                                      IN:
           ---                                      ---
              STO-SS =          63.8221                STO-SS =       8.0890E-02     STORAGE         
              STO-SY =       40884.5537                STO-SY =          49.7555     STORAGE         
                 RCH =      254516.8132                   RCH =         143.0141     RCHA            
                 CHD =         313.8567                   CHD =           0.0000     CHD             

            TOTAL IN =      295779.0457              TOTAL IN =         192.8505

          OUT:                                     OUT:
          ----                                     ----
              STO-SS =          61.3530                STO-SS =       9.9019E-02     STORAGE         
              STO-SY =       39471.3408                STO-SY =          71.3615     STORAGE         
                 RCH =           0.0000                   RCH =           0.0000     RCHA            
                 CHD =      256248.5118                   CHD =         121.3845     CHD             

           TOTAL OUT =      295781.2055             TOTAL OUT =         192.8450

            IN - OUT =          -2.1598              IN - OUT =       5.4836E-03

 PERCENT DISCREPANCY =          -0.00     PERCENT DISCREPANCY =           0.00




         TIME SUMMARY AT END OF TIME STEP    1 IN STRESS PERIOD   52
                    SECONDS     MINUTES      HOURS       DAYS        YEARS
                    -----------------------------------------------------------
   TIME STEP LENGTH 2.59200E+05  4320.0      72.000      3.0000     8.21355E-03
 STRESS PERIOD TIME 2.59200E+05  4320.0      72.000      3.0000     8.21355E-03
         TOTAL TIME 1.29946E+08 2.16576E+06  36096.      1504.0      4.1177    
 UBDSV1 SAVING           STO-SS ON UNIT   1016 AT TIME STEP      2, STRESS PERIOD     52
 UBDSV1 SAVING           STO-SY ON UNIT   1016 AT TIME STEP      2, STRESS PERIOD     52
 UBDSV1 SAVING     FLOW-JA-FACE ON UNIT   1016 AT TIME STEP      2, STRESS PERIOD     52
 UBDSV06 SAVING              RCH IN MODEL TEST_TRANS       PACKAGE TEST_TRANS      CONNECTED TO MODEL TEST_TRANS       PACKAGE RCHA             ON UNIT   1016 AT TIME STEP      2, STRESS PERIOD     52
 UBDSV06 SAVING              CHD IN MODEL TEST_TRANS       PACKAGE TEST_TRANS      CONNECTED TO MODEL TEST_TRANS       PACKAGE CHD              ON UNIT   1016 AT TIME STEP      2, STRESS PERIOD     52

 HEAD WILL BE SAVED ON UNIT 1017 AT END OF TIME STEP    2, STRESS PERIOD   52


  VOLUME BUDGET FOR ENTIRE MODEL AT END OF TIME STEP    2, STRESS PERIOD  52
  ---------------------------------------------------------------------------------------------------

     CUMULATIVE VOLUME      L**3       RATES FOR THIS TIME STEP      L**3/T          PACKAGE NAME    
     ------------------                 ------------------------                     ----------------

           IN:                                      IN:
           ---                                      ---
              STO-SS =          64.0444                STO-SS =       7.4092E-02     STORAGE         
              STO-SY =       41020.8211                STO-SY =          45.4225     STORAGE         
                 RCH =      254945.8554                   RCH =         143.0141     RCHA            
                 CHD =         313.8567                   CHD =           0.0000     CHD             

            TOTAL IN =      296344.5776              TOTAL IN =         188.5106

          OUT:                                     OUT:
          ----                                     ----
              STO-SS =          61.5094                STO-SS =       5.2122E-02     STORAGE         
              STO-SY =       39581.8029                STO-SY =          36.8207     STORAGE         
                 RCH =           0.0000                   RCH =           0.0000     RCHA            
                 CHD =      256703.4189                   CHD =         151.6357     CHD             

           TOTAL OUT =      296346.7311             TOTAL OUT =         188.5085

            IN - OUT =          -2.1535              IN - OUT =       2.1043E-03

 PERCENT DISCREPANCY =          -0.00     PERCENT DISCREPANCY =           0.00




         TIME SUMMARY AT END OF TIME STEP    2 IN STRESS PERIOD   52
                    SECONDS     MINUTES      HOURS       DAYS        YEARS
                    -----------------------------------------------------------
   TIME STEP LENGTH 2.59200E+05  4320.0      72.000      3.0000     8.21355E-03
 STRESS PERIOD TIME 5.18400E+05  8640.0      144.00      6.0000     1.64271E-02
         TOTAL TIME 1.30205E+08 2.17008E+06  36168.      1507.0      4.1259    
 UBDSV1 SAVING           STO-SS ON UNIT   1016 AT TIME STEP      3, STRESS PERIOD     52
 UBDSV1 SAVING           STO-SY ON UNIT   1016 AT TIME STEP      3, STRESS PERIOD     52
 UBDSV1 SAVING     FLOW-JA-FACE ON UNIT   1016 AT TIME STEP      3, STRESS PERIOD     52
 UBDSV06 SAVING              RCH IN MODEL TEST_TRANS       PACKAGE TEST_TRANS      CONNECTED TO MODEL TEST_TRANS       PACKAGE RCHA             ON UNIT   1016 AT TIME STEP      3, STRESS PERIOD     52
 UBDSV06 SAVING              CHD IN MODEL TEST_TRANS       PACKAGE TEST_TRANS      CONNECTED TO MODEL TEST_TRANS       PACKAGE CHD              ON UNIT   1016 AT TIME STEP      3, STRESS PERIOD     52

 HEAD WILL BE SAVED ON UNIT 1017 AT END OF TIME STEP    3, STRESS PERIOD   52


  VOLUME BUDGET FOR ENTIRE MODEL AT END OF TIME STEP    3, STRESS PERIOD  52
  ---------------------------------------------------------------------------------------------------

     CUMULATIVE VOLUME      L**3       RATES FOR THIS TIME STEP      L**3/T          PACKAGE NAME    
     ------------------                 ------------------------                     ----------------

           IN:                                      IN:
           ---                                      ---
              STO-SS =          64.2513                STO-SS =       6.8970E-02     STORAGE         
              STO-SY =       41147.4391                STO-SY =          42.2060     STORAGE         
                 RCH =      255374.8977                   RCH =         143.0141     RCHA            
                 CHD =         313.8567                   CHD =           0.0000     CHD             

            TOTAL IN =      296900.4448              TOTAL IN =         185.2891

          OUT:                                     OUT:
          ----                                     ----
              STO-SS =          61.6041                STO-SS =       3.1576E-02     STORAGE         
              STO-SY =       39647.9968                STO-SY =          22.0647     STORAGE         
                 RCH =           0.0000                   RCH =           0.0000     RCHA            
                 CHD =      257192.9939                   CHD =         163.1917     CHD             

           TOTAL OUT =      296902.5948             TOTAL OUT =         185.2879

            IN - OUT =          -2.1500              IN - OUT =       1.1619E-03

 PERCENT DISCREPANCY =          -0.00     PERCENT DISCREPANCY =           0.00




         TIME SUMMARY AT END OF TIME STEP    3 IN STRESS PERIOD   52
                    SECONDS     MINUTES      HOURS       DAYS        YEARS
                    -----------------------------------------------------------
   TIME STEP LENGTH 2.59200E+05  4320.0      72.000      3.0000     8.21355E-03
 STRESS PERIOD TIME 7.77600E+05  12960.      216.00      9.0000     2.46407E-02
         TOTAL TIME 1.30464E+08 2.17440E+06  36240.      1510.0      4.1342    
 UBDSV1 SAVING           STO-SS ON UNIT   1016 AT TIME STEP      4, STRESS PERIOD     52
 UBDSV1 SAVING           STO-SY ON UNIT   1016 AT TIME STEP      4, STRESS PERIOD     52
 UBDSV1 SAVING     FLOW-JA-FACE ON UNIT   1016 AT TIME STEP      4, STRESS PERIOD     52
 UBDSV06 SAVING              RCH IN MODEL TEST_TRANS       PACKAGE TEST_TRANS      CONNECTED TO MODEL TEST_TRANS       PACKAGE RCHA             ON UNIT   1016 AT TIME STEP      4, STRESS PERIOD     52
 UBDSV06 SAVING              CHD IN MODEL TEST_TRANS       PACKAGE TEST_TRANS      CONNECTED TO MODEL TEST_TRANS       PACKAGE CHD              ON UNIT   1016 AT TIME STEP      4, STRESS PERIOD     52

 HEAD WILL BE SAVED ON UNIT 1017 AT END OF TIME STEP    4, STRESS PERIOD   52


  VOLUME BUDGET FOR ENTIRE MODEL AT END OF TIME STEP    4, STRESS PERIOD  52
  ---------------------------------------------------------------------------------------------------

     CUMULATIVE VOLUME      L**3       RATES FOR THIS TIME STEP      L**3/T          PACKAGE NAME    
     ------------------                 ------------------------                     ----------------

           IN:                                      IN:
           ---                                      ---
              STO-SS =          64.4466                STO-SS =       6.5099E-02     STORAGE         
              STO-SY =       41266.8617                STO-SY =          39.8075     STORAGE         
                 RCH =      255803.9399                   RCH =         143.0141     RCHA            
                 CHD =         313.8567                   CHD =           0.0000     CHD             

            TOTAL IN =      297449.1049              TOTAL IN =         182.8867

          OUT:                                     OUT:
          ----                                     ----
              STO-SS =          61.6650                STO-SS =       2.0308E-02     STORAGE         
              STO-SY =       39690.2893                STO-SY =          14.0975     STORAGE         
                 RCH =           0.0000                   RCH =           0.0000     RCHA            
                 CHD =      257699.3014                   CHD =         168.7692     CHD             

           TOTAL OUT =      297451.2557             TOTAL OUT =         182.8870

            IN - OUT =          -2.1508              IN - OUT =      -2.6037E-04

 PERCENT DISCREPANCY =          -0.00     PERCENT DISCREPANCY =          -0.00




         TIME SUMMARY AT END OF TIME STEP    4 IN STRESS PERIOD   52
                    SECONDS     MINUTES      HOURS       DAYS        YEARS
                    -----------------------------------------------------------
   TIME STEP LENGTH 2.59200E+05  4320.0      72.000      3.0000     8.21355E-03
 STRESS PERIOD TIME 1.03680E+06  17280.      288.00      12.000     3.28542E-02
         TOTAL TIME 1.30723E+08 2.17872E+06  36312.      1513.0      4.1424    
 UBDSV1 SAVING           STO-SS ON UNIT   1016 AT TIME STEP      5, STRESS PERIOD     52
 UBDSV1 SAVING           STO-SY ON UNIT   1016 AT TIME STEP      5, STRESS PERIOD     52
 UBDSV1 SAVING     FLOW-JA-FACE ON UNIT   1016 AT TIME STEP      5, STRESS PERIOD     52
 UBDSV06 SAVING              RCH IN MODEL TEST_TRANS       PACKAGE TEST_TRANS      CONNECTED TO MODEL TEST_TRANS       PACKAGE RCHA             ON UNIT   1016 AT TIME STEP      5, STRESS PERIOD     52
 UBDSV06 SAVING              CHD IN MODEL TEST_TRANS       PACKAGE TEST_TRANS      CONNECTED TO MODEL TEST_TRANS       PACKAGE CHD              ON UNIT   1016 AT TIME STEP      5, STRESS PERIOD     52

 HEAD WILL BE SAVED ON UNIT 1017 AT END OF TIME STEP    5, STRESS PERIOD   52


  VOLUME BUDGET FOR ENTIRE MODEL AT END OF TIME STEP    5, STRESS PERIOD  52
  ---------------------------------------------------------------------------------------------------

     CUMULATIVE VOLUME      L**3       RATES FOR THIS TIME STEP      L**3/T          PACKAGE NAME    
     ------------------                 ------------------------                     ----------------

           IN:                                      IN:
           ---                                      ---
              STO-SS =          64.6325                STO-SS =       6.1975E-02     STORAGE         
              STO-SY =       41380.5287                STO-SY =          37.8890     STORAGE         
                 RCH =      256232.9822                   RCH =         143.0141     RCHA            
                 CHD =         313.8567                   CHD =           0.0000     CHD             

            TOTAL IN =      297992.0001              TOTAL IN =         180.9650

          OUT:                                     OUT:
          ----                                     ----
              STO-SS =          61.7044                STO-SS =       1.3135E-02     STORAGE         
              STO-SY =       39717.5535                STO-SY =           9.0881     STORAGE         
                 RCH =           0.0000                   RCH =           0.0000     RCHA            
                 CHD =      258214.8941                   CHD =         171.8642     CHD             

           TOTAL OUT =      297994.1520             TOTAL OUT =         180.9654

            IN - OUT =          -2.1519              IN - OUT =      -3.7874E-04

 PERCENT DISCREPANCY =          -0.00     PERCENT DISCREPANCY =          -0.00




         TIME SUMMARY AT END OF TIME STEP    5 IN STRESS PERIOD   52
                    SECONDS     MINUTES      HOURS       DAYS        YEARS
                    -----------------------------------------------------------
   TIME STEP LENGTH 2.59200E+05  4320.0      72.000      3.0000     8.21355E-03
 STRESS PERIOD TIME 1.29600E+06  21600.      360.00      15.000     4.10678E-02
         TOTAL TIME 1.30982E+08 2.18304E+06  36384.      1516.0      4.1506    
 UBDSV1 SAVING           STO-SS ON UNIT   1016 AT TIME STEP      6, STRESS PERIOD     52
 UBDSV1 SAVING           STO-SY ON UNIT   1016 AT TIME STEP      6, STRESS PERIOD     52
 UBDSV1 SAVING     FLOW-JA-FACE ON UNIT   1016 AT TIME STEP      6, STRESS PERIOD     52
 UBDSV06 SAVING              RCH IN MODEL TEST_TRANS       PACKAGE TEST_TRANS      CONNECTED TO MODEL TEST_TRANS       PACKAGE RCHA             ON UNIT   1016 AT TIME STEP      6, STRESS PERIOD     52
 UBDSV06 SAVING              CHD IN MODEL TEST_TRANS       PACKAGE TEST_TRANS      CONNECTED TO MODEL TEST_TRANS       PACKAGE CHD              ON UNIT   1016 AT TIME STEP      6, STRESS PERIOD     52

 HEAD WILL BE SAVED ON UNIT 1017 AT END OF TIME STEP    6, STRESS PERIOD   52


  VOLUME BUDGET FOR ENTIRE MODEL AT END OF TIME STEP    6, STRESS PERIOD  52
  ---------------------------------------------------------------------------------------------------

     CUMULATIVE VOLUME      L**3       RATES FOR THIS TIME STEP      L**3/T          PACKAGE NAME    
     ------------------                 ------------------------                     ----------------

           IN:                                      IN:
           ---                                      ---
              STO-SS =          64.8109                STO-SS =       5.9463E-02     STORAGE         
              STO-SY =       41489.6102                STO-SY =          36.3605     STORAGE         
                 RCH =      256662.0244                   RCH =         143.0141     RCHA            
                 CHD =         313.8567                   CHD =           0.0000     CHD             

            TOTAL IN =      298530.3022              TOTAL IN =         179.4340

          OUT:                                     OUT:
          ----                                     ----
              STO-SS =          61.7292                STO-SS =       8.2689E-03     STORAGE         
              STO-SY =       39734.7031                STO-SY =           5.7165     STORAGE         
                 RCH =           0.0000                   RCH =           0.0000     RCHA            
                 CHD =      258736.0239                   CHD =         173.7099     CHD             

           TOTAL OUT =      298532.4562             TOTAL OUT =         179.4347

            IN - OUT =          -2.1540              IN - OUT =      -6.9197E-04

 PERCENT DISCREPANCY =          -0.00     PERCENT DISCREPANCY =          -0.00




         TIME SUMMARY AT END OF TIME STEP    6 IN STRESS PERIOD   52
                    SECONDS     MINUTES      HOURS       DAYS        YEARS
                    -----------------------------------------------------------
   TIME STEP LENGTH 2.59200E+05  4320.0      72.000      3.0000     8.21355E-03
 STRESS PERIOD TIME 1.55520E+06  25920.      432.00      18.000     4.92813E-02
         TOTAL TIME 1.31242E+08 2.18736E+06  36456.      1519.0      4.1588    
 UBDSV1 SAVING           STO-SS ON UNIT   1016 AT TIME STEP      7, STRESS PERIOD     52
 UBDSV1 SAVING           STO-SY ON UNIT   1016 AT TIME STEP      7, STRESS PERIOD     52
 UBDSV1 SAVING     FLOW-JA-FACE ON UNIT   1016 AT TIME STEP      7, STRESS PERIOD     52
 UBDSV06 SAVING              RCH IN MODEL TEST_TRANS       PACKAGE TEST_TRANS      CONNECTED TO MODEL TEST_TRANS       PACKAGE RCHA             ON UNIT   1016 AT TIME STEP      7, STRESS PERIOD     52
 UBDSV06 SAVING              CHD IN MODEL TEST_TRANS       PACKAGE TEST_TRANS      CONNECTED TO MODEL TEST_TRANS       PACKAGE CHD              ON UNIT   1016 AT TIME STEP      7, STRESS PERIOD     52

 HEAD WILL BE SAVED ON UNIT 1017 AT END OF TIME STEP    7, STRESS PERIOD   52


  VOLUME BUDGET FOR ENTIRE MODEL AT END OF TIME STEP    7, STRESS PERIOD  52
  ---------------------------------------------------------------------------------------------------

     CUMULATIVE VOLUME      L**3       RATES FOR THIS TIME STEP      L**3/T          PACKAGE NAME    
     ------------------                 ------------------------                     ----------------

           IN:                                      IN:
           ---                                      ---
              STO-SS =          64.9835                STO-SS =       5.7538E-02     STORAGE         
              STO-SY =       41595.2279                STO-SY =          35.2059     STORAGE         
                 RCH =      257091.0666                   RCH =         143.0141     RCHA            
                 CHD =         313.8567                   CHD =           0.0000     CHD             

            TOTAL IN =      299065.1347              TOTAL IN =         178.2775

          OUT:                                     OUT:
          ----                                     ----
              STO-SS =          61.7441                STO-SS =       4.9607E-03     STORAGE         
              STO-SY =       39745.0015                STO-SY =           3.4328     STORAGE         
                 RCH =           0.0000                   RCH =           0.0000     RCHA            
                 CHD =      259260.5428                   CHD =         174.8396     CHD             

           TOTAL OUT =      299067.2884             TOTAL OUT =         178.2774

            IN - OUT =          -2.1537              IN - OUT =       1.0616E-04

 PERCENT DISCREPANCY =          -0.00     PERCENT DISCREPANCY =           0.00




         TIME SUMMARY AT END OF TIME STEP    7 IN STRESS PERIOD   52
                    SECONDS     MINUTES      HOURS       DAYS        YEARS
                    -----------------------------------------------------------
   TIME STEP LENGTH 2.59200E+05  4320.0      72.000      3.0000     8.21355E-03
 STRESS PERIOD TIME 1.81440E+06  30240.      504.00      21.000     5.74949E-02
         TOTAL TIME 1.31501E+08 2.19168E+06  36528.      1522.0      4.1670    
 UBDSV1 SAVING           STO-SS ON UNIT   1016 AT TIME STEP      8, STRESS PERIOD     52
 UBDSV1 SAVING           STO-SY ON UNIT   1016 AT TIME STEP      8, STRESS PERIOD     52
 UBDSV1 SAVING     FLOW-JA-FACE ON UNIT   1016 AT TIME STEP      8, STRESS PERIOD     52
 UBDSV06 SAVING              RCH IN MODEL TEST_TRANS       PACKAGE TEST_TRANS      CONNECTED TO MODEL TEST_TRANS       PACKAGE RCHA             ON UNIT   1016 AT TIME STEP      8, STRESS PERIOD     52
 UBDSV06 SAVING              CHD IN MODEL TEST_TRANS       PACKAGE TEST_TRANS      CONNECTED TO MODEL TEST_TRANS       PACKAGE CHD              ON UNIT   1016 AT TIME STEP      8, STRESS PERIOD     52

 HEAD WILL BE SAVED ON UNIT 1017 AT END OF TIME STEP    8, STRESS PERIOD   52


  VOLUME BUDGET FOR ENTIRE MODEL AT END OF TIME STEP    8, STRESS PERIOD  52
  ---------------------------------------------------------------------------------------------------

     CUMULATIVE VOLUME      L**3       RATES FOR THIS TIME STEP      L**3/T          PACKAGE NAME    
     ------------------                 ------------------------                     ----------------

           IN:                                      IN:
           ---                                      ---
              STO-SS =          65.1516                STO-SS =       5.6013E-02     STORAGE         
              STO-SY =       41698.1396                STO-SY =          34.3039     STORAGE         
                 RCH =      257520.1089                   RCH =         143.0141     RCHA            
                 CHD =         313.8567                   CHD =           0.0000     CHD             

            TOTAL IN =      299597.2567              TOTAL IN =         177.3740

          OUT:                                     OUT:
          ----                                     ----
              STO-SS =          61.7521                STO-SS =       2.6619E-03     STORAGE         
              STO-SY =       39750.5482                STO-SY =           1.8489     STORAGE         
                 RCH =           0.0000                   RCH =           0.0000     RCHA            
                 CHD =      259787.1081                   CHD =         175.5218     CHD             

           TOTAL OUT =      299599.4084             TOTAL OUT =         177.3733

            IN - OUT =          -2.1517              IN - OUT =       6.6203E-04

 PERCENT DISCREPANCY =          -0.00     PERCENT DISCREPANCY =           0.00




         TIME SUMMARY AT END OF TIME STEP    8 IN STRESS PERIOD   52
                    SECONDS     MINUTES      HOURS       DAYS        YEARS
                    -----------------------------------------------------------
   TIME STEP LENGTH 2.59200E+05  4320.0      72.000      3.0000     8.21355E-03
 STRESS PERIOD TIME 2.07360E+06  34560.      576.00      24.000     6.57084E-02
         TOTAL TIME 1.31760E+08 2.19600E+06  36600.      1525.0      4.1752    
 UBDSV1 SAVING           STO-SS ON UNIT   1016 AT TIME STEP      9, STRESS PERIOD     52
 UBDSV1 SAVING           STO-SY ON UNIT   1016 AT TIME STEP      9, STRESS PERIOD     52
 UBDSV1 SAVING     FLOW-JA-FACE ON UNIT   1016 AT TIME STEP      9, STRESS PERIOD     52
 UBDSV06 SAVING              RCH IN MODEL TEST_TRANS       PACKAGE TEST_TRANS      CONNECTED TO MODEL TEST_TRANS       PACKAGE RCHA             ON UNIT   1016 AT TIME STEP      9, STRESS PERIOD     52
 UBDSV06 SAVING              CHD IN MODEL TEST_TRANS       PACKAGE TEST_TRANS      CONNECTED TO MODEL TEST_TRANS       PACKAGE CHD              ON UNIT   1016 AT TIME STEP      9, STRESS PERIOD     52

 HEAD WILL BE SAVED ON UNIT 1017 AT END OF TIME STEP    9, STRESS PERIOD   52


  VOLUME BUDGET FOR ENTIRE MODEL AT END OF TIME STEP    9, STRESS PERIOD  52
  ---------------------------------------------------------------------------------------------------

     CUMULATIVE VOLUME      L**3       RATES FOR THIS TIME STEP      L**3/T          PACKAGE NAME    
     ------------------                 ------------------------                     ----------------

           IN:                                      IN:
           ---                                      ---
              STO-SS =          65.3163                STO-SS =       5.4914E-02     STORAGE         
              STO-SY =       41799.1643                STO-SY =          33.6749     STORAGE         
                 RCH =      257949.1511                   RCH =         143.0141     RCHA            
                 CHD =         313.8567                   CHD =           0.0000     CHD             

            TOTAL IN =      300127.4884              TOTAL IN =         176.7439

          OUT:                                     OUT:
          ----                                     ----
              STO-SS =          61.7557                STO-SS =       1.1953E-03     STORAGE         
              STO-SY =       39753.0539                STO-SY =           0.8352     STORAGE         
                 RCH =           0.0000                   RCH =           0.0000     RCHA            
                 CHD =      260314.8274                   CHD =         175.9064     CHD             

           TOTAL OUT =      300129.6370             TOTAL OUT =         176.7428

            IN - OUT =          -2.1485              IN - OUT =       1.0651E-03

 PERCENT DISCREPANCY =          -0.00     PERCENT DISCREPANCY =           0.00




         TIME SUMMARY AT END OF TIME STEP    9 IN STRESS PERIOD   52
                    SECONDS     MINUTES      HOURS       DAYS        YEARS
                    -----------------------------------------------------------
   TIME STEP LENGTH 2.59200E+05  4320.0      72.000      3.0000     8.21355E-03
 STRESS PERIOD TIME 2.33280E+06  38880.      648.00      27.000     7.39220E-02
         TOTAL TIME 1.32019E+08 2.20032E+06  36672.      1528.0      4.1834    
 UBDSV1 SAVING           STO-SS ON UNIT   1016 AT TIME STEP     10, STRESS PERIOD     52
 UBDSV1 SAVING           STO-SY ON UNIT   1016 AT TIME STEP     10, STRESS PERIOD     52
 UBDSV1 SAVING     FLOW-JA-FACE ON UNIT   1016 AT TIME STEP     10, STRESS PERIOD     52
 UBDSV06 SAVING              RCH IN MODEL TEST_TRANS       PACKAGE TEST_TRANS      CONNECTED TO MODEL TEST_TRANS       PACKAGE RCHA             ON UNIT   1016 AT TIME STEP     10, STRESS PERIOD     52
 UBDSV06 SAVING              CHD IN MODEL TEST_TRANS       PACKAGE TEST_TRANS      CONNECTED TO MODEL TEST_TRANS       PACKAGE CHD              ON UNIT   1016 AT TIME STEP     10, STRESS PERIOD     52

 HEAD WILL BE SAVED ON UNIT 1017 AT END OF TIME STEP   10, STRESS PERIOD   52


  VOLUME BUDGET FOR ENTIRE MODEL AT END OF TIME STEP   10, STRESS PERIOD  52
  ---------------------------------------------------------------------------------------------------

     CUMULATIVE VOLUME      L**3       RATES FOR THIS TIME STEP      L**3/T          PACKAGE NAME    
     ------------------                 ------------------------                     ----------------

           IN:                                      IN:
           ---                                      ---
              STO-SS =          65.4789                STO-SS =       5.4190E-02     STORAGE         
              STO-SY =       41899.0248                STO-SY =          33.2868     STORAGE         
                 RCH =      258378.1934                   RCH =         143.0141     RCHA            
                 CHD =         313.8567                   CHD =           0.0000     CHD             

            TOTAL IN =      300656.5538              TOTAL IN =         176.3551

          OUT:                                     OUT:
          ----                                     ----
              STO-SS =          61.7568                STO-SS =       3.7010E-04     STORAGE         
              STO-SY =       39753.8369                STO-SY =           0.2610     STORAGE         
                 RCH =           0.0000                   RCH =           0.0000     RCHA            
                 CHD =      260843.0946                   CHD =         176.0891     CHD             

           TOTAL OUT =      300658.6883             TOTAL OUT =         176.3505

            IN - OUT =          -2.1346              IN - OUT =       4.6579E-03

 PERCENT DISCREPANCY =          -0.00     PERCENT DISCREPANCY =           0.00




         TIME SUMMARY AT END OF TIME STEP   10 IN STRESS PERIOD   52
                    SECONDS     MINUTES      HOURS       DAYS        YEARS
                    -----------------------------------------------------------
   TIME STEP LENGTH 2.59200E+05  4320.0      72.000      3.0000     8.21355E-03
 STRESS PERIOD TIME 2.59200E+06  43200.      720.00      30.000     8.21355E-02
         TOTAL TIME 1.32278E+08 2.20464E+06  36744.      1531.0      4.1916    

 OUTPUT CONTROL FOR STRESS PERIOD 53 IS REPEATED USING SETTINGS FROM A PREVIOUS STRESS PERIOD.


 STRESS PERIOD 53 IS TRANSIENT


                 RECHARGE =  0.1232880E-02
 UBDSV1 SAVING           STO-SS ON UNIT   1016 AT TIME STEP      1, STRESS PERIOD     53
 UBDSV1 SAVING           STO-SY ON UNIT   1016 AT TIME STEP      1, STRESS PERIOD     53
 UBDSV1 SAVING     FLOW-JA-FACE ON UNIT   1016 AT TIME STEP      1, STRESS PERIOD     53
 UBDSV06 SAVING              RCH IN MODEL TEST_TRANS       PACKAGE TEST_TRANS      CONNECTED TO MODEL TEST_TRANS       PACKAGE RCHA             ON UNIT   1016 AT TIME STEP      1, STRESS PERIOD     53
 UBDSV06 SAVING              CHD IN MODEL TEST_TRANS       PACKAGE TEST_TRANS      CONNECTED TO MODEL TEST_TRANS       PACKAGE CHD              ON UNIT   1016 AT TIME STEP      1, STRESS PERIOD     53

 HEAD WILL BE SAVED ON UNIT 1017 AT END OF TIME STEP    1, STRESS PERIOD   53


  VOLUME BUDGET FOR ENTIRE MODEL AT END OF TIME STEP    1, STRESS PERIOD  53
  ---------------------------------------------------------------------------------------------------

     CUMULATIVE VOLUME      L**3       RATES FOR THIS TIME STEP      L**3/T          PACKAGE NAME    
     ------------------                 ------------------------                     ----------------

           IN:                                      IN:
           ---                                      ---
              STO-SS =          65.7635                STO-SS =       9.4881E-02     STORAGE         
              STO-SY =       42074.5654                STO-SY =          58.5135     STORAGE         
                 RCH =      258699.9750                   RCH =         107.2606     RCHA            
                 CHD =         313.8567                   CHD =           0.0000     CHD             

            TOTAL IN =      301154.1606              TOTAL IN =         165.8689

          OUT:                                     OUT:
          ----                                     ----
              STO-SS =          61.9336                STO-SS =       5.8934E-02     STORAGE         
              STO-SY =       39879.3645                STO-SY =          41.8425     STORAGE         
                 RCH =           0.0000                   RCH =           0.0000     RCHA            
                 CHD =      261214.9910                   CHD =         123.9655     CHD             

           TOTAL OUT =      301156.2891             TOTAL OUT =         165.8669

            IN - OUT =          -2.1285              IN - OUT =       2.0258E-03

 PERCENT DISCREPANCY =          -0.00     PERCENT DISCREPANCY =           0.00




         TIME SUMMARY AT END OF TIME STEP    1 IN STRESS PERIOD   53
                    SECONDS     MINUTES      HOURS       DAYS        YEARS
                    -----------------------------------------------------------
   TIME STEP LENGTH 2.59200E+05  4320.0      72.000      3.0000     8.21355E-03
 STRESS PERIOD TIME 2.59200E+05  4320.0      72.000      3.0000     8.21355E-03
         TOTAL TIME 1.32538E+08 2.20896E+06  36816.      1534.0      4.1999    
 UBDSV1 SAVING           STO-SS ON UNIT   1016 AT TIME STEP      2, STRESS PERIOD     53
 UBDSV1 SAVING           STO-SY ON UNIT   1016 AT TIME STEP      2, STRESS PERIOD     53
 UBDSV1 SAVING     FLOW-JA-FACE ON UNIT   1016 AT TIME STEP      2, STRESS PERIOD     53
 UBDSV06 SAVING              RCH IN MODEL TEST_TRANS       PACKAGE TEST_TRANS      CONNECTED TO MODEL TEST_TRANS       PACKAGE RCHA             ON UNIT   1016 AT TIME STEP      2, STRESS PERIOD     53
 UBDSV06 SAVING              CHD IN MODEL TEST_TRANS       PACKAGE TEST_TRANS      CONNECTED TO MODEL TEST_TRANS       PACKAGE CHD              ON UNIT   1016 AT TIME STEP      2, STRESS PERIOD     53

 HEAD WILL BE SAVED ON UNIT 1017 AT END OF TIME STEP    2, STRESS PERIOD   53


  VOLUME BUDGET FOR ENTIRE MODEL AT END OF TIME STEP    2, STRESS PERIOD  53
  ---------------------------------------------------------------------------------------------------

     CUMULATIVE VOLUME      L**3       RATES FOR THIS TIME STEP      L**3/T          PACKAGE NAME    
     ------------------                 ------------------------                     ----------------

           IN:                                      IN:
           ---                                      ---
              STO-SS =          66.0321                STO-SS =       8.9519E-02     STORAGE         
              STO-SY =       42239.9859                STO-SY =          55.1402     STORAGE         
                 RCH =      259021.7567                   RCH =         107.2606     RCHA            
                 CHD =         313.8567                   CHD =           0.0000     CHD             

            TOTAL IN =      301641.6314              TOTAL IN =         162.4903

          OUT:                                     OUT:
          ----                                     ----
              STO-SS =          62.0220                STO-SS =       2.9470E-02     STORAGE         
              STO-SY =       39941.2502                STO-SY =          20.6286     STORAGE         
                 RCH =           0.0000                   RCH =           0.0000     RCHA            
                 CHD =      261640.4736                   CHD =         141.8275     CHD             

           TOTAL OUT =      301643.7458             TOTAL OUT =         162.4856

            IN - OUT =          -2.1144              IN - OUT =       4.6950E-03

 PERCENT DISCREPANCY =          -0.00     PERCENT DISCREPANCY =           0.00




         TIME SUMMARY AT END OF TIME STEP    2 IN STRESS PERIOD   53
                    SECONDS     MINUTES      HOURS       DAYS        YEARS
                    -----------------------------------------------------------
   TIME STEP LENGTH 2.59200E+05  4320.0      72.000      3.0000     8.21355E-03
 STRESS PERIOD TIME 5.18400E+05  8640.0      144.00      6.0000     1.64271E-02
         TOTAL TIME 1.32797E+08 2.21328E+06  36888.      1537.0      4.2081    
 UBDSV1 SAVING           STO-SS ON UNIT   1016 AT TIME STEP      3, STRESS PERIOD     53
 UBDSV1 SAVING           STO-SY ON UNIT   1016 AT TIME STEP      3, STRESS PERIOD     53
 UBDSV1 SAVING     FLOW-JA-FACE ON UNIT   1016 AT TIME STEP      3, STRESS PERIOD     53
 UBDSV06 SAVING              RCH IN MODEL TEST_TRANS       PACKAGE TEST_TRANS      CONNECTED TO MODEL TEST_TRANS       PACKAGE RCHA             ON UNIT   1016 AT TIME STEP      3, STRESS PERIOD     53
 UBDSV06 SAVING              CHD IN MODEL TEST_TRANS       PACKAGE TEST_TRANS      CONNECTED TO MODEL TEST_TRANS       PACKAGE CHD              ON UNIT   1016 AT TIME STEP      3, STRESS PERIOD     53

 HEAD WILL BE SAVED ON UNIT 1017 AT END OF TIME STEP    3, STRESS PERIOD   53


  VOLUME BUDGET FOR ENTIRE MODEL AT END OF TIME STEP    3, STRESS PERIOD  53
  ---------------------------------------------------------------------------------------------------

     CUMULATIVE VOLUME      L**3       RATES FOR THIS TIME STEP      L**3/T          PACKAGE NAME    
     ------------------                 ------------------------                     ----------------

           IN:                                      IN:
           ---                                      ---
              STO-SS =          66.2881                STO-SS =       8.5350E-02     STORAGE         
              STO-SY =       42397.6536                STO-SY =          52.5559     STORAGE         
                 RCH =      259343.5384                   RCH =         107.2606     RCHA            
                 CHD =         313.8567                   CHD =           0.0000     CHD             

            TOTAL IN =      302121.3368              TOTAL IN =         159.9018

          OUT:                                     OUT:
          ----                                     ----
              STO-SS =          62.0715                STO-SS =       1.6506E-02     STORAGE         
              STO-SY =       39975.6636                STO-SY =          11.4711     STORAGE         
                 RCH =           0.0000                   RCH =           0.0000     RCHA            
                 CHD =      262085.7119                   CHD =         148.4128     CHD             

           TOTAL OUT =      302123.4471             TOTAL OUT =         159.9004

            IN - OUT =          -2.1103              IN - OUT =       1.3720E-03

 PERCENT DISCREPANCY =          -0.00     PERCENT DISCREPANCY =           0.00




         TIME SUMMARY AT END OF TIME STEP    3 IN STRESS PERIOD   53
                    SECONDS     MINUTES      HOURS       DAYS        YEARS
                    -----------------------------------------------------------
   TIME STEP LENGTH 2.59200E+05  4320.0      72.000      3.0000     8.21355E-03
 STRESS PERIOD TIME 7.77600E+05  12960.      216.00      9.0000     2.46407E-02
         TOTAL TIME 1.33056E+08 2.21760E+06  36960.      1540.0      4.2163    
 UBDSV1 SAVING           STO-SS ON UNIT   1016 AT TIME STEP      4, STRESS PERIOD     53
 UBDSV1 SAVING           STO-SY ON UNIT   1016 AT TIME STEP      4, STRESS PERIOD     53
 UBDSV1 SAVING     FLOW-JA-FACE ON UNIT   1016 AT TIME STEP      4, STRESS PERIOD     53
 UBDSV06 SAVING              RCH IN MODEL TEST_TRANS       PACKAGE TEST_TRANS      CONNECTED TO MODEL TEST_TRANS       PACKAGE RCHA             ON UNIT   1016 AT TIME STEP      4, STRESS PERIOD     53
 UBDSV06 SAVING              CHD IN MODEL TEST_TRANS       PACKAGE TEST_TRANS      CONNECTED TO MODEL TEST_TRANS       PACKAGE CHD              ON UNIT   1016 AT TIME STEP      4, STRESS PERIOD     53

 HEAD WILL BE SAVED ON UNIT 1017 AT END OF TIME STEP    4, STRESS PERIOD   53


  VOLUME BUDGET FOR ENTIRE MODEL AT END OF TIME STEP    4, STRESS PERIOD  53
  ---------------------------------------------------------------------------------------------------

     CUMULATIVE VOLUME      L**3       RATES FOR THIS TIME STEP      L**3/T          PACKAGE NAME    
     ------------------                 ------------------------                     ----------------

           IN:                                      IN:
           ---                                      ---
              STO-SS =          66.5345                STO-SS =       8.2118E-02     STORAGE         
              STO-SY =       42549.3950                STO-SY =          50.5805     STORAGE         
                 RCH =      259665.3201                   RCH =         107.2606     RCHA            
                 CHD =         313.8567                   CHD =           0.0000     CHD             

            TOTAL IN =      302595.1063              TOTAL IN =         157.9232

          OUT:                                     OUT:
          ----                                     ----
              STO-SS =          62.0995                STO-SS =       9.3253E-03     STORAGE         
              STO-SY =       39995.0488                STO-SY =           6.4617     STORAGE         
                 RCH =           0.0000                   RCH =           0.0000     RCHA            
                 CHD =      262540.0666                   CHD =         151.4516     CHD             

           TOTAL OUT =      302597.2150             TOTAL OUT =         157.9226

            IN - OUT =          -2.1087              IN - OUT =       5.3645E-04

 PERCENT DISCREPANCY =          -0.00     PERCENT DISCREPANCY =           0.00




         TIME SUMMARY AT END OF TIME STEP    4 IN STRESS PERIOD   53
                    SECONDS     MINUTES      HOURS       DAYS        YEARS
                    -----------------------------------------------------------
   TIME STEP LENGTH 2.59200E+05  4320.0      72.000      3.0000     8.21355E-03
 STRESS PERIOD TIME 1.03680E+06  17280.      288.00      12.000     3.28542E-02
         TOTAL TIME 1.33315E+08 2.22192E+06  37032.      1543.0      4.2245    
 UBDSV1 SAVING           STO-SS ON UNIT   1016 AT TIME STEP      5, STRESS PERIOD     53
 UBDSV1 SAVING           STO-SY ON UNIT   1016 AT TIME STEP      5, STRESS PERIOD     53
 UBDSV1 SAVING     FLOW-JA-FACE ON UNIT   1016 AT TIME STEP      5, STRESS PERIOD     53
 UBDSV06 SAVING              RCH IN MODEL TEST_TRANS       PACKAGE TEST_TRANS      CONNECTED TO MODEL TEST_TRANS       PACKAGE RCHA             ON UNIT   1016 AT TIME STEP      5, STRESS PERIOD     53
 UBDSV06 SAVING              CHD IN MODEL TEST_TRANS       PACKAGE TEST_TRANS      CONNECTED TO MODEL TEST_TRANS       PACKAGE CHD              ON UNIT   1016 AT TIME STEP      5, STRESS PERIOD     53

 HEAD WILL BE SAVED ON UNIT 1017 AT END OF TIME STEP    5, STRESS PERIOD   53


  VOLUME BUDGET FOR ENTIRE MODEL AT END OF TIME STEP    5, STRESS PERIOD  53
  ---------------------------------------------------------------------------------------------------

     CUMULATIVE VOLUME      L**3       RATES FOR THIS TIME STEP      L**3/T          PACKAGE NAME    
     ------------------                 ------------------------                     ----------------

           IN:                                      IN:
           ---                                      ---
              STO-SS =          66.7736                STO-SS =       7.9701E-02     STORAGE         
              STO-SY =       42696.7886                STO-SY =          49.1312     STORAGE         
                 RCH =      259987.1018                   RCH =         107.2606     RCHA            
                 CHD =         313.8567                   CHD =           0.0000     CHD             

            TOTAL IN =      303064.5207              TOTAL IN =         156.4715

          OUT:                                     OUT:
          ----                                     ----
              STO-SS =          62.1145                STO-SS =       4.9914E-03     STORAGE         
              STO-SY =       40005.4227                STO-SY =           3.4580     STORAGE         
                 RCH =           0.0000                   RCH =           0.0000     RCHA            
                 CHD =      262999.0888                   CHD =         153.0074     CHD             

           TOTAL OUT =      303066.6260             TOTAL OUT =         156.4703

            IN - OUT =          -2.1053              IN - OUT =       1.1356E-03

 PERCENT DISCREPANCY =          -0.00     PERCENT DISCREPANCY =           0.00




         TIME SUMMARY AT END OF TIME STEP    5 IN STRESS PERIOD   53
                    SECONDS     MINUTES      HOURS       DAYS        YEARS
                    -----------------------------------------------------------
   TIME STEP LENGTH 2.59200E+05  4320.0      72.000      3.0000     8.21355E-03
 STRESS PERIOD TIME 1.29600E+06  21600.      360.00      15.000     4.10678E-02
         TOTAL TIME 1.33574E+08 2.22624E+06  37104.      1546.0      4.2327    
 UBDSV1 SAVING           STO-SS ON UNIT   1016 AT TIME STEP      6, STRESS PERIOD     53
 UBDSV1 SAVING           STO-SY ON UNIT   1016 AT TIME STEP      6, STRESS PERIOD     53
 UBDSV1 SAVING     FLOW-JA-FACE ON UNIT   1016 AT TIME STEP      6, STRESS PERIOD     53
 UBDSV06 SAVING              RCH IN MODEL TEST_TRANS       PACKAGE TEST_TRANS      CONNECTED TO MODEL TEST_TRANS       PACKAGE RCHA             ON UNIT   1016 AT TIME STEP      6, STRESS PERIOD     53
 UBDSV06 SAVING              CHD IN MODEL TEST_TRANS       PACKAGE TEST_TRANS      CONNECTED TO MODEL TEST_TRANS       PACKAGE CHD              ON UNIT   1016 AT TIME STEP      6, STRESS PERIOD     53

 HEAD WILL BE SAVED ON UNIT 1017 AT END OF TIME STEP    6, STRESS PERIOD   53


  VOLUME BUDGET FOR ENTIRE MODEL AT END OF TIME STEP    6, STRESS PERIOD  53
  ---------------------------------------------------------------------------------------------------

     CUMULATIVE VOLUME      L**3       RATES FOR THIS TIME STEP      L**3/T          PACKAGE NAME    
     ------------------                 ------------------------                     ----------------

           IN:                                      IN:
           ---                                      ---
              STO-SS =          67.0071                STO-SS =       7.7844E-02     STORAGE         
              STO-SY =       42840.9096                STO-SY =          48.0403     STORAGE         
                 RCH =      260308.8834                   RCH =         107.2606     RCHA            
                 CHD =         313.8567                   CHD =           0.0000     CHD             

            TOTAL IN =      303530.6568              TOTAL IN =         155.3787

          OUT:                                     OUT:
          ----                                     ----
              STO-SS =          62.1213                STO-SS =       2.2565E-03     STORAGE         
              STO-SY =       40010.1284                STO-SY =           1.5686     STORAGE         
                 RCH =           0.0000                   RCH =           0.0000     RCHA            
                 CHD =      263460.5077                   CHD =         153.8063     CHD             

           TOTAL OUT =      303532.7574             TOTAL OUT =         155.3771

            IN - OUT =          -2.1005              IN - OUT =       1.5748E-03

 PERCENT DISCREPANCY =          -0.00     PERCENT DISCREPANCY =           0.00




         TIME SUMMARY AT END OF TIME STEP    6 IN STRESS PERIOD   53
                    SECONDS     MINUTES      HOURS       DAYS        YEARS
                    -----------------------------------------------------------
   TIME STEP LENGTH 2.59200E+05  4320.0      72.000      3.0000     8.21355E-03
 STRESS PERIOD TIME 1.55520E+06  25920.      432.00      18.000     4.92813E-02
         TOTAL TIME 1.33834E+08 2.23056E+06  37176.      1549.0      4.2409    
 UBDSV1 SAVING           STO-SS ON UNIT   1016 AT TIME STEP      7, STRESS PERIOD     53
 UBDSV1 SAVING           STO-SY ON UNIT   1016 AT TIME STEP      7, STRESS PERIOD     53
 UBDSV1 SAVING     FLOW-JA-FACE ON UNIT   1016 AT TIME STEP      7, STRESS PERIOD     53
 UBDSV06 SAVING              RCH IN MODEL TEST_TRANS       PACKAGE TEST_TRANS      CONNECTED TO MODEL TEST_TRANS       PACKAGE RCHA             ON UNIT   1016 AT TIME STEP      7, STRESS PERIOD     53
 UBDSV06 SAVING              CHD IN MODEL TEST_TRANS       PACKAGE TEST_TRANS      CONNECTED TO MODEL TEST_TRANS       PACKAGE CHD              ON UNIT   1016 AT TIME STEP      7, STRESS PERIOD     53

 HEAD WILL BE SAVED ON UNIT 1017 AT END OF TIME STEP    7, STRESS PERIOD   53


  VOLUME BUDGET FOR ENTIRE MODEL AT END OF TIME STEP    7, STRESS PERIOD  53
  ---------------------------------------------------------------------------------------------------

     CUMULATIVE VOLUME      L**3       RATES FOR THIS TIME STEP      L**3/T          PACKAGE NAME    
     ------------------                 ------------------------                     ----------------

           IN:                                      IN:
           ---                                      ---
              STO-SS =          67.2369                STO-SS =       7.6590E-02     STORAGE         
              STO-SY =       42982.9324                STO-SY =          47.3409     STORAGE         
                 RCH =      260630.6651                   RCH =         107.2606     RCHA            
                 CHD =         313.8567                   CHD =           0.0000     CHD             

            TOTAL IN =      303994.6911              TOTAL IN =         154.6781

          OUT:                                     OUT:
          ----                                     ----
              STO-SS =          62.1235                STO-SS =       7.2964E-04     STORAGE         
              STO-SY =       40011.6597                STO-SY =           0.5104     STORAGE         
                 RCH =           0.0000                   RCH =           0.0000     RCHA            
                 CHD =      263923.0029                   CHD =         154.1651     CHD             

           TOTAL OUT =      303996.7860             TOTAL OUT =         154.6762

            IN - OUT =          -2.0949              IN - OUT =       1.8743E-03

 PERCENT DISCREPANCY =          -0.00     PERCENT DISCREPANCY =           0.00




         TIME SUMMARY AT END OF TIME STEP    7 IN STRESS PERIOD   53
                    SECONDS     MINUTES      HOURS       DAYS        YEARS
                    -----------------------------------------------------------
   TIME STEP LENGTH 2.59200E+05  4320.0      72.000      3.0000     8.21355E-03
 STRESS PERIOD TIME 1.81440E+06  30240.      504.00      21.000     5.74949E-02
         TOTAL TIME 1.34093E+08 2.23488E+06  37248.      1552.0      4.2491    
 UBDSV1 SAVING           STO-SS ON UNIT   1016 AT TIME STEP      8, STRESS PERIOD     53
 UBDSV1 SAVING           STO-SY ON UNIT   1016 AT TIME STEP      8, STRESS PERIOD     53
 UBDSV1 SAVING     FLOW-JA-FACE ON UNIT   1016 AT TIME STEP      8, STRESS PERIOD     53
 UBDSV06 SAVING              RCH IN MODEL TEST_TRANS       PACKAGE TEST_TRANS      CONNECTED TO MODEL TEST_TRANS       PACKAGE RCHA             ON UNIT   1016 AT TIME STEP      8, STRESS PERIOD     53
 UBDSV06 SAVING              CHD IN MODEL TEST_TRANS       PACKAGE TEST_TRANS      CONNECTED TO MODEL TEST_TRANS       PACKAGE CHD              ON UNIT   1016 AT TIME STEP      8, STRESS PERIOD     53

 HEAD WILL BE SAVED ON UNIT 1017 AT END OF TIME STEP    8, STRESS PERIOD   53


  VOLUME BUDGET FOR ENTIRE MODEL AT END OF TIME STEP    8, STRESS PERIOD  53
  ---------------------------------------------------------------------------------------------------

     CUMULATIVE VOLUME      L**3       RATES FOR THIS TIME STEP      L**3/T          PACKAGE NAME    
     ------------------                 ------------------------                     ----------------

           IN:                                      IN:
           ---                                      ---
              STO-SS =          67.4644                STO-SS =       7.5816E-02     STORAGE         
              STO-SY =       43123.8003                STO-SY =          46.9560     STORAGE         
                 RCH =      260952.4468                   RCH =         107.2606     RCHA            
                 CHD =         313.8567                   CHD =           0.0000     CHD             

            TOTAL IN =      304457.5682              TOTAL IN =         154.2924

          OUT:                                     OUT:
          ----                                     ----
              STO-SS =          62.1236                STO-SS =       6.4169E-05     STORAGE         
              STO-SY =       40011.7962                STO-SY =       4.5504E-02     STORAGE         
                 RCH =           0.0000                   RCH =           0.0000     RCHA            
                 CHD =      264385.7371                   CHD =         154.2447     CHD             

           TOTAL OUT =      304459.6569             TOTAL OUT =         154.2903

            IN - OUT =          -2.0887              IN - OUT =       2.0587E-03

 PERCENT DISCREPANCY =          -0.00     PERCENT DISCREPANCY =           0.00




         TIME SUMMARY AT END OF TIME STEP    8 IN STRESS PERIOD   53
                    SECONDS     MINUTES      HOURS       DAYS        YEARS
                    -----------------------------------------------------------
   TIME STEP LENGTH 2.59200E+05  4320.0      72.000      3.0000     8.21355E-03
 STRESS PERIOD TIME 2.07360E+06  34560.      576.00      24.000     6.57084E-02
         TOTAL TIME 1.34352E+08 2.23920E+06  37320.      1555.0      4.2574    
 UBDSV1 SAVING           STO-SS ON UNIT   1016 AT TIME STEP      9, STRESS PERIOD     53
 UBDSV1 SAVING           STO-SY ON UNIT   1016 AT TIME STEP      9, STRESS PERIOD     53
 UBDSV1 SAVING     FLOW-JA-FACE ON UNIT   1016 AT TIME STEP      9, STRESS PERIOD     53
 UBDSV06 SAVING              RCH IN MODEL TEST_TRANS       PACKAGE TEST_TRANS      CONNECTED TO MODEL TEST_TRANS       PACKAGE RCHA             ON UNIT   1016 AT TIME STEP      9, STRESS PERIOD     53
 UBDSV06 SAVING              CHD IN MODEL TEST_TRANS       PACKAGE TEST_TRANS      CONNECTED TO MODEL TEST_TRANS       PACKAGE CHD              ON UNIT   1016 AT TIME STEP      9, STRESS PERIOD     53

 HEAD WILL BE SAVED ON UNIT 1017 AT END OF TIME STEP    9, STRESS PERIOD   53


  VOLUME BUDGET FOR ENTIRE MODEL AT END OF TIME STEP    9, STRESS PERIOD  53
  ---------------------------------------------------------------------------------------------------

     CUMULATIVE VOLUME      L**3       RATES FOR THIS TIME STEP      L**3/T          PACKAGE NAME    
     ------------------                 ------------------------                     ----------------

           IN:                                      IN:
           ---                                      ---
              STO-SS =          67.6905                STO-SS =       7.5388E-02     STORAGE         
              STO-SY =       43264.2096                STO-SY =          46.8031     STORAGE         
                 RCH =      261274.2285                   RCH =         107.2606     RCHA            
                 CHD =         313.8567                   CHD =           0.0000     CHD             

            TOTAL IN =      304919.9852              TOTAL IN =         154.1390

          OUT:                                     OUT:
          ----                                     ----
              STO-SS =          62.1236                STO-SS =           0.0000     STORAGE         
              STO-SY =       40011.7962                STO-SY =           0.0000     STORAGE         
                 RCH =           0.0000                   RCH =           0.0000     RCHA            
                 CHD =      264848.1476                   CHD =         154.1368     CHD             

           TOTAL OUT =      304922.0674             TOTAL OUT =         154.1368

            IN - OUT =          -2.0822              IN - OUT =       2.1868E-03

 PERCENT DISCREPANCY =          -0.00     PERCENT DISCREPANCY =           0.00




         TIME SUMMARY AT END OF TIME STEP    9 IN STRESS PERIOD   53
                    SECONDS     MINUTES      HOURS       DAYS        YEARS
                    -----------------------------------------------------------
   TIME STEP LENGTH 2.59200E+05  4320.0      72.000      3.0000     8.21355E-03
 STRESS PERIOD TIME 2.33280E+06  38880.      648.00      27.000     7.39220E-02
         TOTAL TIME 1.34611E+08 2.24352E+06  37392.      1558.0      4.2656    
 UBDSV1 SAVING           STO-SS ON UNIT   1016 AT TIME STEP     10, STRESS PERIOD     53
 UBDSV1 SAVING           STO-SY ON UNIT   1016 AT TIME STEP     10, STRESS PERIOD     53
 UBDSV1 SAVING     FLOW-JA-FACE ON UNIT   1016 AT TIME STEP     10, STRESS PERIOD     53
 UBDSV06 SAVING              RCH IN MODEL TEST_TRANS       PACKAGE TEST_TRANS      CONNECTED TO MODEL TEST_TRANS       PACKAGE RCHA             ON UNIT   1016 AT TIME STEP     10, STRESS PERIOD     53
 UBDSV06 SAVING              CHD IN MODEL TEST_TRANS       PACKAGE TEST_TRANS      CONNECTED TO MODEL TEST_TRANS       PACKAGE CHD              ON UNIT   1016 AT TIME STEP     10, STRESS PERIOD     53

 HEAD WILL BE SAVED ON UNIT 1017 AT END OF TIME STEP   10, STRESS PERIOD   53


  VOLUME BUDGET FOR ENTIRE MODEL AT END OF TIME STEP   10, STRESS PERIOD  53
  ---------------------------------------------------------------------------------------------------

     CUMULATIVE VOLUME      L**3       RATES FOR THIS TIME STEP      L**3/T          PACKAGE NAME    
     ------------------                 ------------------------                     ----------------

           IN:                                      IN:
           ---                                      ---
              STO-SS =          67.9151                STO-SS =       7.4847E-02     STORAGE         
              STO-SY =       43403.9029                STO-SY =          46.5644     STORAGE         
                 RCH =      261596.0102                   RCH =         107.2606     RCHA            
                 CHD =         313.8567                   CHD =           0.0000     CHD             

            TOTAL IN =      305381.6848              TOTAL IN =         153.8998

          OUT:                                     OUT:
          ----                                     ----
              STO-SS =          62.1236                STO-SS =           0.0000     STORAGE         
              STO-SY =       40011.7962                STO-SY =           0.0000     STORAGE         
                 RCH =           0.0000                   RCH =           0.0000     RCHA            
                 CHD =      265309.8403                   CHD =         153.8976     CHD             

           TOTAL OUT =      305383.7601             TOTAL OUT =         153.8976

            IN - OUT =          -2.0753              IN - OUT =       2.2755E-03

 PERCENT DISCREPANCY =          -0.00     PERCENT DISCREPANCY =           0.00




         TIME SUMMARY AT END OF TIME STEP   10 IN STRESS PERIOD   53
                    SECONDS     MINUTES      HOURS       DAYS        YEARS
                    -----------------------------------------------------------
   TIME STEP LENGTH 2.59200E+05  4320.0      72.000      3.0000     8.21355E-03
 STRESS PERIOD TIME 2.59200E+06  43200.      720.00      30.000     8.21355E-02
         TOTAL TIME 1.34870E+08 2.24784E+06  37464.      1561.0      4.2738    

 OUTPUT CONTROL FOR STRESS PERIOD 54 IS REPEATED USING SETTINGS FROM A PREVIOUS STRESS PERIOD.


 STRESS PERIOD 54 IS TRANSIENT


                 RECHARGE =  0.8219178E-03
 UBDSV1 SAVING           STO-SS ON UNIT   1016 AT TIME STEP      1, STRESS PERIOD     54
 UBDSV1 SAVING           STO-SY ON UNIT   1016 AT TIME STEP      1, STRESS PERIOD     54
 UBDSV1 SAVING     FLOW-JA-FACE ON UNIT   1016 AT TIME STEP      1, STRESS PERIOD     54
 UBDSV06 SAVING              RCH IN MODEL TEST_TRANS       PACKAGE TEST_TRANS      CONNECTED TO MODEL TEST_TRANS       PACKAGE RCHA             ON UNIT   1016 AT TIME STEP      1, STRESS PERIOD     54
 UBDSV06 SAVING              CHD IN MODEL TEST_TRANS       PACKAGE TEST_TRANS      CONNECTED TO MODEL TEST_TRANS       PACKAGE CHD              ON UNIT   1016 AT TIME STEP      1, STRESS PERIOD     54

 HEAD WILL BE SAVED ON UNIT 1017 AT END OF TIME STEP    1, STRESS PERIOD   54


  VOLUME BUDGET FOR ENTIRE MODEL AT END OF TIME STEP    1, STRESS PERIOD  54
  ---------------------------------------------------------------------------------------------------

     CUMULATIVE VOLUME      L**3       RATES FOR THIS TIME STEP      L**3/T          PACKAGE NAME    
     ------------------                 ------------------------                     ----------------

           IN:                                      IN:
           ---                                      ---
              STO-SS =          68.2453                STO-SS =           0.1101     STORAGE         
              STO-SY =       43608.9476                STO-SY =          68.3482     STORAGE         
                 RCH =      261810.5307                   RCH =          71.5068     RCHA            
                 CHD =         313.8567                   CHD =           0.0000     CHD             

            TOTAL IN =      305801.5802              TOTAL IN =         139.9652

          OUT:                                     OUT:
          ----                                     ----
              STO-SS =          62.4284                STO-SS =           0.1016     STORAGE         
              STO-SY =       40225.6640                STO-SY =          71.2893     STORAGE         
                 RCH =           0.0000                   RCH =           0.0000     RCHA            
                 CHD =      265515.5583                   CHD =          68.5727     CHD             

           TOTAL OUT =      305803.6507             TOTAL OUT =         139.9635

            IN - OUT =          -2.0705              IN - OUT =       1.6087E-03

 PERCENT DISCREPANCY =          -0.00     PERCENT DISCREPANCY =           0.00




         TIME SUMMARY AT END OF TIME STEP    1 IN STRESS PERIOD   54
                    SECONDS     MINUTES      HOURS       DAYS        YEARS
                    -----------------------------------------------------------
   TIME STEP LENGTH 2.59200E+05  4320.0      72.000      3.0000     8.21355E-03
 STRESS PERIOD TIME 2.59200E+05  4320.0      72.000      3.0000     8.21355E-03
         TOTAL TIME 1.35130E+08 2.25216E+06  37536.      1564.0      4.2820    
 UBDSV1 SAVING           STO-SS ON UNIT   1016 AT TIME STEP      2, STRESS PERIOD     54
 UBDSV1 SAVING           STO-SY ON UNIT   1016 AT TIME STEP      2, STRESS PERIOD     54
 UBDSV1 SAVING     FLOW-JA-FACE ON UNIT   1016 AT TIME STEP      2, STRESS PERIOD     54
 UBDSV06 SAVING              RCH IN MODEL TEST_TRANS       PACKAGE TEST_TRANS      CONNECTED TO MODEL TEST_TRANS       PACKAGE RCHA             ON UNIT   1016 AT TIME STEP      2, STRESS PERIOD     54
 UBDSV06 SAVING              CHD IN MODEL TEST_TRANS       PACKAGE TEST_TRANS      CONNECTED TO MODEL TEST_TRANS       PACKAGE CHD              ON UNIT   1016 AT TIME STEP      2, STRESS PERIOD     54

 HEAD WILL BE SAVED ON UNIT 1017 AT END OF TIME STEP    2, STRESS PERIOD   54


  VOLUME BUDGET FOR ENTIRE MODEL AT END OF TIME STEP    2, STRESS PERIOD  54
  ---------------------------------------------------------------------------------------------------

     CUMULATIVE VOLUME      L**3       RATES FOR THIS TIME STEP      L**3/T          PACKAGE NAME    
     ------------------                 ------------------------                     ----------------

           IN:                                      IN:
           ---                                      ---
              STO-SS =          68.5532                STO-SS =           0.1027     STORAGE         
              STO-SY =       43799.9385                STO-SY =          63.6636     STORAGE         
                 RCH =      262025.0513                   RCH =          71.5068     RCHA            
                 CHD =         313.8567                   CHD =           0.0000     CHD             

            TOTAL IN =      306207.3997              TOTAL IN =         135.2731

          OUT:                                     OUT:
          ----                                     ----
              STO-SS =          62.5862                STO-SS =       5.2589E-02     STORAGE         
              STO-SY =       40334.7714                STO-SY =          36.3691     STORAGE         
                 RCH =           0.0000                   RCH =           0.0000     RCHA            
                 CHD =      265812.1034                   CHD =          98.8484     CHD             

           TOTAL OUT =      306209.4610             TOTAL OUT =         135.2701

            IN - OUT =          -2.0613              IN - OUT =       3.0656E-03

 PERCENT DISCREPANCY =          -0.00     PERCENT DISCREPANCY =           0.00




         TIME SUMMARY AT END OF TIME STEP    2 IN STRESS PERIOD   54
                    SECONDS     MINUTES      HOURS       DAYS        YEARS
                    -----------------------------------------------------------
   TIME STEP LENGTH 2.59200E+05  4320.0      72.000      3.0000     8.21355E-03
 STRESS PERIOD TIME 5.18400E+05  8640.0      144.00      6.0000     1.64271E-02
         TOTAL TIME 1.35389E+08 2.25648E+06  37608.      1567.0      4.2902    
 UBDSV1 SAVING           STO-SS ON UNIT   1016 AT TIME STEP      3, STRESS PERIOD     54
 UBDSV1 SAVING           STO-SY ON UNIT   1016 AT TIME STEP      3, STRESS PERIOD     54
 UBDSV1 SAVING     FLOW-JA-FACE ON UNIT   1016 AT TIME STEP      3, STRESS PERIOD     54
 UBDSV06 SAVING              RCH IN MODEL TEST_TRANS       PACKAGE TEST_TRANS      CONNECTED TO MODEL TEST_TRANS       PACKAGE RCHA             ON UNIT   1016 AT TIME STEP      3, STRESS PERIOD     54
 UBDSV06 SAVING              CHD IN MODEL TEST_TRANS       PACKAGE TEST_TRANS      CONNECTED TO MODEL TEST_TRANS       PACKAGE CHD              ON UNIT   1016 AT TIME STEP      3, STRESS PERIOD     54

 HEAD WILL BE SAVED ON UNIT 1017 AT END OF TIME STEP    3, STRESS PERIOD   54


  VOLUME BUDGET FOR ENTIRE MODEL AT END OF TIME STEP    3, STRESS PERIOD  54
  ---------------------------------------------------------------------------------------------------

     CUMULATIVE VOLUME      L**3       RATES FOR THIS TIME STEP      L**3/T          PACKAGE NAME    
     ------------------                 ------------------------                     ----------------

           IN:                                      IN:
           ---                                      ---
              STO-SS =          68.8438                STO-SS =       9.6868E-02     STORAGE         
              STO-SY =       43980.0737                STO-SY =          60.0451     STORAGE         
                 RCH =      262239.5718                   RCH =          71.5068     RCHA            
                 CHD =         313.8567                   CHD =           0.0000     CHD             

            TOTAL IN =      306602.3460              TOTAL IN =         131.6488

          OUT:                                     OUT:
          ----                                     ----
              STO-SS =          62.6805                STO-SS =       3.1423E-02     STORAGE         
              STO-SY =       40399.4820                STO-SY =          21.5702     STORAGE         
                 RCH =           0.0000                   RCH =           0.0000     RCHA            
                 CHD =      266142.2431                   CHD =         110.0466     CHD             

           TOTAL OUT =      306604.4056             TOTAL OUT =         131.6482

            IN - OUT =          -2.0595              IN - OUT =       6.0458E-04

 PERCENT DISCREPANCY =          -0.00     PERCENT DISCREPANCY =           0.00




         TIME SUMMARY AT END OF TIME STEP    3 IN STRESS PERIOD   54
                    SECONDS     MINUTES      HOURS       DAYS        YEARS
                    -----------------------------------------------------------
   TIME STEP LENGTH 2.59200E+05  4320.0      72.000      3.0000     8.21355E-03
 STRESS PERIOD TIME 7.77600E+05  12960.      216.00      9.0000     2.46407E-02
         TOTAL TIME 1.35648E+08 2.26080E+06  37680.      1570.0      4.2984    
 UBDSV1 SAVING           STO-SS ON UNIT   1016 AT TIME STEP      4, STRESS PERIOD     54
 UBDSV1 SAVING           STO-SY ON UNIT   1016 AT TIME STEP      4, STRESS PERIOD     54
 UBDSV1 SAVING     FLOW-JA-FACE ON UNIT   1016 AT TIME STEP      4, STRESS PERIOD     54
 UBDSV06 SAVING              RCH IN MODEL TEST_TRANS       PACKAGE TEST_TRANS      CONNECTED TO MODEL TEST_TRANS       PACKAGE RCHA             ON UNIT   1016 AT TIME STEP      4, STRESS PERIOD     54
 UBDSV06 SAVING              CHD IN MODEL TEST_TRANS       PACKAGE TEST_TRANS      CONNECTED TO MODEL TEST_TRANS       PACKAGE CHD              ON UNIT   1016 AT TIME STEP      4, STRESS PERIOD     54

 HEAD WILL BE SAVED ON UNIT 1017 AT END OF TIME STEP    4, STRESS PERIOD   54


  VOLUME BUDGET FOR ENTIRE MODEL AT END OF TIME STEP    4, STRESS PERIOD  54
  ---------------------------------------------------------------------------------------------------

     CUMULATIVE VOLUME      L**3       RATES FOR THIS TIME STEP      L**3/T          PACKAGE NAME    
     ------------------                 ------------------------                     ----------------

           IN:                                      IN:
           ---                                      ---
              STO-SS =          69.1210                STO-SS =       9.2400E-02     STORAGE         
              STO-SY =       44151.9403                STO-SY =          57.2889     STORAGE         
                 RCH =      262454.0924                   RCH =          71.5068     RCHA            
                 CHD =         313.8567                   CHD =           0.0000     CHD             

            TOTAL IN =      306989.0104              TOTAL IN =         128.8881

          OUT:                                     OUT:
          ----                                     ----
              STO-SS =          62.7396                STO-SS =       1.9704E-02     STORAGE         
              STO-SY =       40439.8926                STO-SY =          13.4702     STORAGE         
                 RCH =           0.0000                   RCH =           0.0000     RCHA            
                 CHD =      266488.4373                   CHD =         115.3981     CHD             

           TOTAL OUT =      306991.0695             TOTAL OUT =         128.8880

            IN - OUT =          -2.0591              IN - OUT =       1.4783E-04

 PERCENT DISCREPANCY =          -0.00     PERCENT DISCREPANCY =           0.00




         TIME SUMMARY AT END OF TIME STEP    4 IN STRESS PERIOD   54
                    SECONDS     MINUTES      HOURS       DAYS        YEARS
                    -----------------------------------------------------------
   TIME STEP LENGTH 2.59200E+05  4320.0      72.000      3.0000     8.21355E-03
 STRESS PERIOD TIME 1.03680E+06  17280.      288.00      12.000     3.28542E-02
         TOTAL TIME 1.35907E+08 2.26512E+06  37752.      1573.0      4.3066    
 UBDSV1 SAVING           STO-SS ON UNIT   1016 AT TIME STEP      5, STRESS PERIOD     54
 UBDSV1 SAVING           STO-SY ON UNIT   1016 AT TIME STEP      5, STRESS PERIOD     54
 UBDSV1 SAVING     FLOW-JA-FACE ON UNIT   1016 AT TIME STEP      5, STRESS PERIOD     54
 UBDSV06 SAVING              RCH IN MODEL TEST_TRANS       PACKAGE TEST_TRANS      CONNECTED TO MODEL TEST_TRANS       PACKAGE RCHA             ON UNIT   1016 AT TIME STEP      5, STRESS PERIOD     54
 UBDSV06 SAVING              CHD IN MODEL TEST_TRANS       PACKAGE TEST_TRANS      CONNECTED TO MODEL TEST_TRANS       PACKAGE CHD              ON UNIT   1016 AT TIME STEP      5, STRESS PERIOD     54

 HEAD WILL BE SAVED ON UNIT 1017 AT END OF TIME STEP    5, STRESS PERIOD   54


  VOLUME BUDGET FOR ENTIRE MODEL AT END OF TIME STEP    5, STRESS PERIOD  54
  ---------------------------------------------------------------------------------------------------

     CUMULATIVE VOLUME      L**3       RATES FOR THIS TIME STEP      L**3/T          PACKAGE NAME    
     ------------------                 ------------------------                     ----------------

           IN:                                      IN:
           ---                                      ---
              STO-SS =          69.3873                STO-SS =       8.8761E-02     STORAGE         
              STO-SY =       44317.1309                STO-SY =          55.0635     STORAGE         
                 RCH =      262668.6129                   RCH =          71.5068     RCHA            
                 CHD =         313.8567                   CHD =           0.0000     CHD             

            TOTAL IN =      307368.9878              TOTAL IN =         126.6592

          OUT:                                     OUT:
          ----                                     ----
              STO-SS =          62.7761                STO-SS =       1.2179E-02     STORAGE         
              STO-SY =       40464.8295                STO-SY =           8.3123     STORAGE         
                 RCH =           0.0000                   RCH =           0.0000     RCHA            
                 CHD =      266843.4417                   CHD =         118.3348     CHD             

           TOTAL OUT =      307371.0473             TOTAL OUT =         126.6593

            IN - OUT =          -2.0594              IN - OUT =      -1.2408E-04

 PERCENT DISCREPANCY =          -0.00     PERCENT DISCREPANCY =          -0.00




         TIME SUMMARY AT END OF TIME STEP    5 IN STRESS PERIOD   54
                    SECONDS     MINUTES      HOURS       DAYS        YEARS
                    -----------------------------------------------------------
   TIME STEP LENGTH 2.59200E+05  4320.0      72.000      3.0000     8.21355E-03
 STRESS PERIOD TIME 1.29600E+06  21600.      360.00      15.000     4.10678E-02
         TOTAL TIME 1.36166E+08 2.26944E+06  37824.      1576.0      4.3149    
 UBDSV1 SAVING           STO-SS ON UNIT   1016 AT TIME STEP      6, STRESS PERIOD     54
 UBDSV1 SAVING           STO-SY ON UNIT   1016 AT TIME STEP      6, STRESS PERIOD     54
 UBDSV1 SAVING     FLOW-JA-FACE ON UNIT   1016 AT TIME STEP      6, STRESS PERIOD     54
 UBDSV06 SAVING              RCH IN MODEL TEST_TRANS       PACKAGE TEST_TRANS      CONNECTED TO MODEL TEST_TRANS       PACKAGE RCHA             ON UNIT   1016 AT TIME STEP      6, STRESS PERIOD     54
 UBDSV06 SAVING              CHD IN MODEL TEST_TRANS       PACKAGE TEST_TRANS      CONNECTED TO MODEL TEST_TRANS       PACKAGE CHD              ON UNIT   1016 AT TIME STEP      6, STRESS PERIOD     54

 HEAD WILL BE SAVED ON UNIT 1017 AT END OF TIME STEP    6, STRESS PERIOD   54


  VOLUME BUDGET FOR ENTIRE MODEL AT END OF TIME STEP    6, STRESS PERIOD  54
  ---------------------------------------------------------------------------------------------------

     CUMULATIVE VOLUME      L**3       RATES FOR THIS TIME STEP      L**3/T          PACKAGE NAME    
     ------------------                 ------------------------                     ----------------

           IN:                                      IN:
           ---                                      ---
              STO-SS =          69.6452                STO-SS =       8.5943E-02     STORAGE         
              STO-SY =       44477.2228                STO-SY =          53.3640     STORAGE         
                 RCH =      262883.1335                   RCH =          71.5068     RCHA            
                 CHD =         313.8567                   CHD =           0.0000     CHD             

            TOTAL IN =      307743.8581              TOTAL IN =         124.9568

          OUT:                                     OUT:
          ----                                     ----
              STO-SS =          62.7977                STO-SS =       7.1856E-03     STORAGE         
              STO-SY =       40479.5436                STO-SY =           4.9047     STORAGE         
                 RCH =           0.0000                   RCH =           0.0000     RCHA            
                 CHD =      267203.5746                   CHD =         120.0443     CHD             

           TOTAL OUT =      307745.9159             TOTAL OUT =         124.9562

            IN - OUT =          -2.0578              IN - OUT =       5.5059E-04

 PERCENT DISCREPANCY =          -0.00     PERCENT DISCREPANCY =           0.00




         TIME SUMMARY AT END OF TIME STEP    6 IN STRESS PERIOD   54
                    SECONDS     MINUTES      HOURS       DAYS        YEARS
                    -----------------------------------------------------------
   TIME STEP LENGTH 2.59200E+05  4320.0      72.000      3.0000     8.21355E-03
 STRESS PERIOD TIME 1.55520E+06  25920.      432.00      18.000     4.92813E-02
         TOTAL TIME 1.36426E+08 2.27376E+06  37896.      1579.0      4.3231    
 UBDSV1 SAVING           STO-SS ON UNIT   1016 AT TIME STEP      7, STRESS PERIOD     54
 UBDSV1 SAVING           STO-SY ON UNIT   1016 AT TIME STEP      7, STRESS PERIOD     54
 UBDSV1 SAVING     FLOW-JA-FACE ON UNIT   1016 AT TIME STEP      7, STRESS PERIOD     54
 UBDSV06 SAVING              RCH IN MODEL TEST_TRANS       PACKAGE TEST_TRANS      CONNECTED TO MODEL TEST_TRANS       PACKAGE RCHA             ON UNIT   1016 AT TIME STEP      7, STRESS PERIOD     54
 UBDSV06 SAVING              CHD IN MODEL TEST_TRANS       PACKAGE TEST_TRANS      CONNECTED TO MODEL TEST_TRANS       PACKAGE CHD              ON UNIT   1016 AT TIME STEP      7, STRESS PERIOD     54

 HEAD WILL BE SAVED ON UNIT 1017 AT END OF TIME STEP    7, STRESS PERIOD   54


  VOLUME BUDGET FOR ENTIRE MODEL AT END OF TIME STEP    7, STRESS PERIOD  54
  ---------------------------------------------------------------------------------------------------

     CUMULATIVE VOLUME      L**3       RATES FOR THIS TIME STEP      L**3/T          PACKAGE NAME    
     ------------------                 ------------------------                     ----------------

           IN:                                      IN:
           ---                                      ---
              STO-SS =          69.8964                STO-SS =       8.3735E-02     STORAGE         
              STO-SY =       44633.3794                STO-SY =          52.0522     STORAGE         
                 RCH =      263097.6540                   RCH =          71.5068     RCHA            
                 CHD =         313.8567                   CHD =           0.0000     CHD             

            TOTAL IN =      308114.7865              TOTAL IN =         123.6428

          OUT:                                     OUT:
          ----                                     ----
              STO-SS =          62.8090                STO-SS =       3.7967E-03     STORAGE         
              STO-SY =       40487.3345                STO-SY =           2.5970     STORAGE         
                 RCH =           0.0000                   RCH =           0.0000     RCHA            
                 CHD =      267566.6976                   CHD =         121.0410     CHD             

           TOTAL OUT =      308116.8412             TOTAL OUT =         123.6418

            IN - OUT =          -2.0548              IN - OUT =       1.0069E-03

 PERCENT DISCREPANCY =          -0.00     PERCENT DISCREPANCY =           0.00




         TIME SUMMARY AT END OF TIME STEP    7 IN STRESS PERIOD   54
                    SECONDS     MINUTES      HOURS       DAYS        YEARS
                    -----------------------------------------------------------
   TIME STEP LENGTH 2.59200E+05  4320.0      72.000      3.0000     8.21355E-03
 STRESS PERIOD TIME 1.81440E+06  30240.      504.00      21.000     5.74949E-02
         TOTAL TIME 1.36685E+08 2.27808E+06  37968.      1582.0      4.3313    
 UBDSV1 SAVING           STO-SS ON UNIT   1016 AT TIME STEP      8, STRESS PERIOD     54
 UBDSV1 SAVING           STO-SY ON UNIT   1016 AT TIME STEP      8, STRESS PERIOD     54
 UBDSV1 SAVING     FLOW-JA-FACE ON UNIT   1016 AT TIME STEP      8, STRESS PERIOD     54
 UBDSV06 SAVING              RCH IN MODEL TEST_TRANS       PACKAGE TEST_TRANS      CONNECTED TO MODEL TEST_TRANS       PACKAGE RCHA             ON UNIT   1016 AT TIME STEP      8, STRESS PERIOD     54
 UBDSV06 SAVING              CHD IN MODEL TEST_TRANS       PACKAGE TEST_TRANS      CONNECTED TO MODEL TEST_TRANS       PACKAGE CHD              ON UNIT   1016 AT TIME STEP      8, STRESS PERIOD     54

 HEAD WILL BE SAVED ON UNIT 1017 AT END OF TIME STEP    8, STRESS PERIOD   54


  VOLUME BUDGET FOR ENTIRE MODEL AT END OF TIME STEP    8, STRESS PERIOD  54
  ---------------------------------------------------------------------------------------------------

     CUMULATIVE VOLUME      L**3       RATES FOR THIS TIME STEP      L**3/T          PACKAGE NAME    
     ------------------                 ------------------------                     ----------------

           IN:                                      IN:
           ---                                      ---
              STO-SS =          70.1428                STO-SS =       8.2143E-02     STORAGE         
              STO-SY =       44786.7867                STO-SY =          51.1358     STORAGE         
                 RCH =      263312.1745                   RCH =          71.5068     RCHA            
                 CHD =         313.8567                   CHD =           0.0000     CHD             

            TOTAL IN =      308482.9607              TOTAL IN =         122.7248

          OUT:                                     OUT:
          ----                                     ----
              STO-SS =          62.8140                STO-SS =       1.6547E-03     STORAGE         
              STO-SY =       40490.7434                STO-SY =           1.1363     STORAGE         
                 RCH =           0.0000                   RCH =           0.0000     RCHA            
                 CHD =      267931.4541                   CHD =         121.5855     CHD             

           TOTAL OUT =      308485.0115             TOTAL OUT =         122.7234

            IN - OUT =          -2.0508              IN - OUT =       1.3185E-03

 PERCENT DISCREPANCY =          -0.00     PERCENT DISCREPANCY =           0.00




         TIME SUMMARY AT END OF TIME STEP    8 IN STRESS PERIOD   54
                    SECONDS     MINUTES      HOURS       DAYS        YEARS
                    -----------------------------------------------------------
   TIME STEP LENGTH 2.59200E+05  4320.0      72.000      3.0000     8.21355E-03
 STRESS PERIOD TIME 2.07360E+06  34560.      576.00      24.000     6.57084E-02
         TOTAL TIME 1.36944E+08 2.28240E+06  38040.      1585.0      4.3395    
 UBDSV1 SAVING           STO-SS ON UNIT   1016 AT TIME STEP      9, STRESS PERIOD     54
 UBDSV1 SAVING           STO-SY ON UNIT   1016 AT TIME STEP      9, STRESS PERIOD     54
 UBDSV1 SAVING     FLOW-JA-FACE ON UNIT   1016 AT TIME STEP      9, STRESS PERIOD     54
 UBDSV06 SAVING              RCH IN MODEL TEST_TRANS       PACKAGE TEST_TRANS      CONNECTED TO MODEL TEST_TRANS       PACKAGE RCHA             ON UNIT   1016 AT TIME STEP      9, STRESS PERIOD     54
 UBDSV06 SAVING              CHD IN MODEL TEST_TRANS       PACKAGE TEST_TRANS      CONNECTED TO MODEL TEST_TRANS       PACKAGE CHD              ON UNIT   1016 AT TIME STEP      9, STRESS PERIOD     54

 HEAD WILL BE SAVED ON UNIT 1017 AT END OF TIME STEP    9, STRESS PERIOD   54


  VOLUME BUDGET FOR ENTIRE MODEL AT END OF TIME STEP    9, STRESS PERIOD  54
  ---------------------------------------------------------------------------------------------------

     CUMULATIVE VOLUME      L**3       RATES FOR THIS TIME STEP      L**3/T          PACKAGE NAME    
     ------------------                 ------------------------                     ----------------

           IN:                                      IN:
           ---                                      ---
              STO-SS =          70.3860                STO-SS =       8.1081E-02     STORAGE         
              STO-SY =       44938.4695                STO-SY =          50.5609     STORAGE         
                 RCH =      263526.6951                   RCH =          71.5068     RCHA            
                 CHD =         313.8567                   CHD =           0.0000     CHD             

            TOTAL IN =      308849.4073              TOTAL IN =         122.1488

          OUT:                                     OUT:
          ----                                     ----
              STO-SS =          62.8154                STO-SS =       4.6557E-04     STORAGE         
              STO-SY =       40491.7086                STO-SY =           0.3217     STORAGE         
                 RCH =           0.0000                   RCH =           0.0000     RCHA            
                 CHD =      268296.9295                   CHD =         121.8251     CHD             

           TOTAL OUT =      308851.4535             TOTAL OUT =         122.1473

            IN - OUT =          -2.0462              IN - OUT =       1.5260E-03

 PERCENT DISCREPANCY =          -0.00     PERCENT DISCREPANCY =           0.00




         TIME SUMMARY AT END OF TIME STEP    9 IN STRESS PERIOD   54
                    SECONDS     MINUTES      HOURS       DAYS        YEARS
                    -----------------------------------------------------------
   TIME STEP LENGTH 2.59200E+05  4320.0      72.000      3.0000     8.21355E-03
 STRESS PERIOD TIME 2.33280E+06  38880.      648.00      27.000     7.39220E-02
         TOTAL TIME 1.37203E+08 2.28672E+06  38112.      1588.0      4.3477    
 UBDSV1 SAVING           STO-SS ON UNIT   1016 AT TIME STEP     10, STRESS PERIOD     54
 UBDSV1 SAVING           STO-SY ON UNIT   1016 AT TIME STEP     10, STRESS PERIOD     54
 UBDSV1 SAVING     FLOW-JA-FACE ON UNIT   1016 AT TIME STEP     10, STRESS PERIOD     54
 UBDSV06 SAVING              RCH IN MODEL TEST_TRANS       PACKAGE TEST_TRANS      CONNECTED TO MODEL TEST_TRANS       PACKAGE RCHA             ON UNIT   1016 AT TIME STEP     10, STRESS PERIOD     54
 UBDSV06 SAVING              CHD IN MODEL TEST_TRANS       PACKAGE TEST_TRANS      CONNECTED TO MODEL TEST_TRANS       PACKAGE CHD              ON UNIT   1016 AT TIME STEP     10, STRESS PERIOD     54

 HEAD WILL BE SAVED ON UNIT 1017 AT END OF TIME STEP   10, STRESS PERIOD   54


  VOLUME BUDGET FOR ENTIRE MODEL AT END OF TIME STEP   10, STRESS PERIOD  54
  ---------------------------------------------------------------------------------------------------

     CUMULATIVE VOLUME      L**3       RATES FOR THIS TIME STEP      L**3/T          PACKAGE NAME    
     ------------------                 ------------------------                     ----------------

           IN:                                      IN:
           ---                                      ---
              STO-SS =          70.6274                STO-SS =       8.0454E-02     STORAGE         
              STO-SY =       45089.2838                STO-SY =          50.2714     STORAGE         
                 RCH =      263741.2156                   RCH =          71.5068     RCHA            
                 CHD =         313.8567                   CHD =           0.0000     CHD             

            TOTAL IN =      309214.9835              TOTAL IN =         121.8587

          OUT:                                     OUT:
          ----                                     ----
              STO-SS =          62.8154                STO-SS =       1.0006E-05     STORAGE         
              STO-SY =       40491.7297                STO-SY =       7.0219E-03     STORAGE         
                 RCH =           0.0000                   RCH =           0.0000     RCHA            
                 CHD =      268662.4797                   CHD =         121.8501     CHD             

           TOTAL OUT =      309217.0248             TOTAL OUT =         121.8571

            IN - OUT =          -2.0413              IN - OUT =       1.6454E-03

 PERCENT DISCREPANCY =          -0.00     PERCENT DISCREPANCY =           0.00




         TIME SUMMARY AT END OF TIME STEP   10 IN STRESS PERIOD   54
                    SECONDS     MINUTES      HOURS       DAYS        YEARS
                    -----------------------------------------------------------
   TIME STEP LENGTH 2.59200E+05  4320.0      72.000      3.0000     8.21355E-03
 STRESS PERIOD TIME 2.59200E+06  43200.      720.00      30.000     8.21355E-02
         TOTAL TIME 1.37462E+08 2.29104E+06  38184.      1591.0      4.3559    

 OUTPUT CONTROL FOR STRESS PERIOD 55 IS REPEATED USING SETTINGS FROM A PREVIOUS STRESS PERIOD.


 STRESS PERIOD 55 IS TRANSIENT


                 RECHARGE =  0.5479452E-03
 UBDSV1 SAVING           STO-SS ON UNIT   1016 AT TIME STEP      1, STRESS PERIOD     55
 UBDSV1 SAVING           STO-SY ON UNIT   1016 AT TIME STEP      1, STRESS PERIOD     55
 UBDSV1 SAVING     FLOW-JA-FACE ON UNIT   1016 AT TIME STEP      1, STRESS PERIOD     55
 UBDSV06 SAVING              RCH IN MODEL TEST_TRANS       PACKAGE TEST_TRANS      CONNECTED TO MODEL TEST_TRANS       PACKAGE RCHA             ON UNIT   1016 AT TIME STEP      1, STRESS PERIOD     55
 UBDSV06 SAVING              CHD IN MODEL TEST_TRANS       PACKAGE TEST_TRANS      CONNECTED TO MODEL TEST_TRANS       PACKAGE CHD              ON UNIT   1016 AT TIME STEP      1, STRESS PERIOD     55

 HEAD WILL BE SAVED ON UNIT 1017 AT END OF TIME STEP    1, STRESS PERIOD   55


  VOLUME BUDGET FOR ENTIRE MODEL AT END OF TIME STEP    1, STRESS PERIOD  55
  ---------------------------------------------------------------------------------------------------

     CUMULATIVE VOLUME      L**3       RATES FOR THIS TIME STEP      L**3/T          PACKAGE NAME    
     ------------------                 ------------------------                     ----------------

           IN:                                      IN:
           ---                                      ---
              STO-SS =          70.9240                STO-SS =       9.8870E-02     STORAGE         
              STO-SY =       45274.3902                STO-SY =          61.7022     STORAGE         
                 RCH =      263884.2293                   RCH =          47.6712     RCHA            
                 CHD =         400.5133                   CHD =          28.8855     CHD             

            TOTAL IN =      309630.0569              TOTAL IN =         138.3578

          OUT:                                     OUT:
          ----                                     ----
              STO-SS =          63.4176                STO-SS =           0.2007     STORAGE         
              STO-SY =       40906.2002                STO-SY =         138.1569     STORAGE         
                 RCH =           0.0000                   RCH =           0.0000     RCHA            
                 CHD =      268662.4797                   CHD =           0.0000     CHD             

           TOTAL OUT =      309632.0975             TOTAL OUT =         138.3576

            IN - OUT =          -2.0405              IN - OUT =       2.5358E-04

 PERCENT DISCREPANCY =          -0.00     PERCENT DISCREPANCY =           0.00




         TIME SUMMARY AT END OF TIME STEP    1 IN STRESS PERIOD   55
                    SECONDS     MINUTES      HOURS       DAYS        YEARS
                    -----------------------------------------------------------
   TIME STEP LENGTH 2.59200E+05  4320.0      72.000      3.0000     8.21355E-03
 STRESS PERIOD TIME 2.59200E+05  4320.0      72.000      3.0000     8.21355E-03
         TOTAL TIME 1.37722E+08 2.29536E+06  38256.      1594.0      4.3641    
 UBDSV1 SAVING           STO-SS ON UNIT   1016 AT TIME STEP      2, STRESS PERIOD     55
 UBDSV1 SAVING           STO-SY ON UNIT   1016 AT TIME STEP      2, STRESS PERIOD     55
 UBDSV1 SAVING     FLOW-JA-FACE ON UNIT   1016 AT TIME STEP      2, STRESS PERIOD     55
 UBDSV06 SAVING              RCH IN MODEL TEST_TRANS       PACKAGE TEST_TRANS      CONNECTED TO MODEL TEST_TRANS       PACKAGE RCHA             ON UNIT   1016 AT TIME STEP      2, STRESS PERIOD     55
 UBDSV06 SAVING              CHD IN MODEL TEST_TRANS       PACKAGE TEST_TRANS      CONNECTED TO MODEL TEST_TRANS       PACKAGE CHD              ON UNIT   1016 AT TIME STEP      2, STRESS PERIOD     55

 HEAD WILL BE SAVED ON UNIT 1017 AT END OF TIME STEP    2, STRESS PERIOD   55


  VOLUME BUDGET FOR ENTIRE MODEL AT END OF TIME STEP    2, STRESS PERIOD  55
  ---------------------------------------------------------------------------------------------------

     CUMULATIVE VOLUME      L**3       RATES FOR THIS TIME STEP      L**3/T          PACKAGE NAME    
     ------------------                 ------------------------                     ----------------

           IN:                                      IN:
           ---                                      ---
              STO-SS =          71.1970                STO-SS =       9.1008E-02     STORAGE         
              STO-SY =       45444.6133                STO-SY =          56.7410     STORAGE         
                 RCH =      264027.2430                   RCH =          47.6712     RCHA            
                 CHD =         400.5133                   CHD =           0.0000     CHD             

            TOTAL IN =      309943.5667              TOTAL IN =         104.5033

          OUT:                                     OUT:
          ----                                     ----
              STO-SS =          63.7554                STO-SS =           0.1126     STORAGE         
              STO-SY =       41135.2025                STO-SY =          76.3341     STORAGE         
                 RCH =           0.0000                   RCH =           0.0000     RCHA            
                 CHD =      268746.6505                   CHD =          28.0569     CHD             

           TOTAL OUT =      309945.6083             TOTAL OUT =         104.5036

            IN - OUT =          -2.0416              IN - OUT =      -3.5567E-04

 PERCENT DISCREPANCY =          -0.00     PERCENT DISCREPANCY =          -0.00




         TIME SUMMARY AT END OF TIME STEP    2 IN STRESS PERIOD   55
                    SECONDS     MINUTES      HOURS       DAYS        YEARS
                    -----------------------------------------------------------
   TIME STEP LENGTH 2.59200E+05  4320.0      72.000      3.0000     8.21355E-03
 STRESS PERIOD TIME 5.18400E+05  8640.0      144.00      6.0000     1.64271E-02
         TOTAL TIME 1.37981E+08 2.29968E+06  38328.      1597.0      4.3723    
 UBDSV1 SAVING           STO-SS ON UNIT   1016 AT TIME STEP      3, STRESS PERIOD     55
 UBDSV1 SAVING           STO-SY ON UNIT   1016 AT TIME STEP      3, STRESS PERIOD     55
 UBDSV1 SAVING     FLOW-JA-FACE ON UNIT   1016 AT TIME STEP      3, STRESS PERIOD     55
 UBDSV06 SAVING              RCH IN MODEL TEST_TRANS       PACKAGE TEST_TRANS      CONNECTED TO MODEL TEST_TRANS       PACKAGE RCHA             ON UNIT   1016 AT TIME STEP      3, STRESS PERIOD     55
 UBDSV06 SAVING              CHD IN MODEL TEST_TRANS       PACKAGE TEST_TRANS      CONNECTED TO MODEL TEST_TRANS       PACKAGE CHD              ON UNIT   1016 AT TIME STEP      3, STRESS PERIOD     55

 HEAD WILL BE SAVED ON UNIT 1017 AT END OF TIME STEP    3, STRESS PERIOD   55


  VOLUME BUDGET FOR ENTIRE MODEL AT END OF TIME STEP    3, STRESS PERIOD  55
  ---------------------------------------------------------------------------------------------------

     CUMULATIVE VOLUME      L**3       RATES FOR THIS TIME STEP      L**3/T          PACKAGE NAME    
     ------------------                 ------------------------                     ----------------

           IN:                                      IN:
           ---                                      ---
              STO-SS =          71.4503                STO-SS =       8.4438E-02     STORAGE         
              STO-SY =       45602.4965                STO-SY =          52.6277     STORAGE         
                 RCH =      264170.2567                   RCH =          47.6712     RCHA            
                 CHD =         400.5133                   CHD =           0.0000     CHD             

            TOTAL IN =      310244.7169              TOTAL IN =         100.3834

          OUT:                                     OUT:
          ----                                     ----
              STO-SS =          63.9821                STO-SS =       7.5576E-02     STORAGE         
              STO-SY =       41287.7235                STO-SY =          50.8403     STORAGE         
                 RCH =           0.0000                   RCH =           0.0000     RCHA            
                 CHD =      268895.0549                   CHD =          49.4681     CHD             

           TOTAL OUT =      310246.7605             TOTAL OUT =         100.3840

            IN - OUT =          -2.0436              IN - OUT =      -6.6019E-04

 PERCENT DISCREPANCY =          -0.00     PERCENT DISCREPANCY =          -0.00




         TIME SUMMARY AT END OF TIME STEP    3 IN STRESS PERIOD   55
                    SECONDS     MINUTES      HOURS       DAYS        YEARS
                    -----------------------------------------------------------
   TIME STEP LENGTH 2.59200E+05  4320.0      72.000      3.0000     8.21355E-03
 STRESS PERIOD TIME 7.77600E+05  12960.      216.00      9.0000     2.46407E-02
         TOTAL TIME 1.38240E+08 2.30400E+06  38400.      1600.0      4.3806    
 UBDSV1 SAVING           STO-SS ON UNIT   1016 AT TIME STEP      4, STRESS PERIOD     55
 UBDSV1 SAVING           STO-SY ON UNIT   1016 AT TIME STEP      4, STRESS PERIOD     55
 UBDSV1 SAVING     FLOW-JA-FACE ON UNIT   1016 AT TIME STEP      4, STRESS PERIOD     55
 UBDSV06 SAVING              RCH IN MODEL TEST_TRANS       PACKAGE TEST_TRANS      CONNECTED TO MODEL TEST_TRANS       PACKAGE RCHA             ON UNIT   1016 AT TIME STEP      4, STRESS PERIOD     55
 UBDSV06 SAVING              CHD IN MODEL TEST_TRANS       PACKAGE TEST_TRANS      CONNECTED TO MODEL TEST_TRANS       PACKAGE CHD              ON UNIT   1016 AT TIME STEP      4, STRESS PERIOD     55

 HEAD WILL BE SAVED ON UNIT 1017 AT END OF TIME STEP    4, STRESS PERIOD   55


  VOLUME BUDGET FOR ENTIRE MODEL AT END OF TIME STEP    4, STRESS PERIOD  55
  ---------------------------------------------------------------------------------------------------

     CUMULATIVE VOLUME      L**3       RATES FOR THIS TIME STEP      L**3/T          PACKAGE NAME    
     ------------------                 ------------------------                     ----------------

           IN:                                      IN:
           ---                                      ---
              STO-SS =          71.6865                STO-SS =       7.8723E-02     STORAGE         
              STO-SY =       45749.6964                STO-SY =          49.0667     STORAGE         
                 RCH =      264313.2704                   RCH =          47.6712     RCHA            
                 CHD =         400.5133                   CHD =           0.0000     CHD             

            TOTAL IN =      310535.1667              TOTAL IN =          96.8166

          OUT:                                     OUT:
          ----                                     ----
              STO-SS =          64.1455                STO-SS =       5.4470E-02     STORAGE         
              STO-SY =       41397.1167                STO-SY =          36.4644     STORAGE         
                 RCH =           0.0000                   RCH =           0.0000     RCHA            
                 CHD =      269075.9501                   CHD =          60.2984     CHD             

           TOTAL OUT =      310537.2123             TOTAL OUT =          96.8173

            IN - OUT =          -2.0456              IN - OUT =      -6.7130E-04

 PERCENT DISCREPANCY =          -0.00     PERCENT DISCREPANCY =          -0.00




         TIME SUMMARY AT END OF TIME STEP    4 IN STRESS PERIOD   55
                    SECONDS     MINUTES      HOURS       DAYS        YEARS
                    -----------------------------------------------------------
   TIME STEP LENGTH 2.59200E+05  4320.0      72.000      3.0000     8.21355E-03
 STRESS PERIOD TIME 1.03680E+06  17280.      288.00      12.000     3.28542E-02
         TOTAL TIME 1.38499E+08 2.30832E+06  38472.      1603.0      4.3888    
 UBDSV1 SAVING           STO-SS ON UNIT   1016 AT TIME STEP      5, STRESS PERIOD     55
 UBDSV1 SAVING           STO-SY ON UNIT   1016 AT TIME STEP      5, STRESS PERIOD     55
 UBDSV1 SAVING     FLOW-JA-FACE ON UNIT   1016 AT TIME STEP      5, STRESS PERIOD     55
 UBDSV06 SAVING              RCH IN MODEL TEST_TRANS       PACKAGE TEST_TRANS      CONNECTED TO MODEL TEST_TRANS       PACKAGE RCHA             ON UNIT   1016 AT TIME STEP      5, STRESS PERIOD     55
 UBDSV06 SAVING              CHD IN MODEL TEST_TRANS       PACKAGE TEST_TRANS      CONNECTED TO MODEL TEST_TRANS       PACKAGE CHD              ON UNIT   1016 AT TIME STEP      5, STRESS PERIOD     55

 HEAD WILL BE SAVED ON UNIT 1017 AT END OF TIME STEP    5, STRESS PERIOD   55


  VOLUME BUDGET FOR ENTIRE MODEL AT END OF TIME STEP    5, STRESS PERIOD  55
  ---------------------------------------------------------------------------------------------------

     CUMULATIVE VOLUME      L**3       RATES FOR THIS TIME STEP      L**3/T          PACKAGE NAME    
     ------------------                 ------------------------                     ----------------

           IN:                                      IN:
           ---                                      ---
              STO-SS =          71.9085                STO-SS =       7.3986E-02     STORAGE         
              STO-SY =       45888.0875                STO-SY =          46.1304     STORAGE         
                 RCH =      264456.2841                   RCH =          47.6712     RCHA            
                 CHD =         400.5133                   CHD =           0.0000     CHD             

            TOTAL IN =      310816.7935              TOTAL IN =          93.8756

          OUT:                                     OUT:
          ----                                     ----
              STO-SS =          64.2672                STO-SS =       4.0559E-02     STORAGE         
              STO-SY =       41478.2982                STO-SY =          27.0605     STORAGE         
                 RCH =           0.0000                   RCH =           0.0000     RCHA            
                 CHD =      269276.2808                   CHD =          66.7769     CHD             

           TOTAL OUT =      310818.8462             TOTAL OUT =          93.8780

            IN - OUT =          -2.0528              IN - OUT =      -2.3920E-03

 PERCENT DISCREPANCY =          -0.00     PERCENT DISCREPANCY =          -0.00




         TIME SUMMARY AT END OF TIME STEP    5 IN STRESS PERIOD   55
                    SECONDS     MINUTES      HOURS       DAYS        YEARS
                    -----------------------------------------------------------
   TIME STEP LENGTH 2.59200E+05  4320.0      72.000      3.0000     8.21355E-03
 STRESS PERIOD TIME 1.29600E+06  21600.      360.00      15.000     4.10678E-02
         TOTAL TIME 1.38758E+08 2.31264E+06  38544.      1606.0      4.3970    
 UBDSV1 SAVING           STO-SS ON UNIT   1016 AT TIME STEP      6, STRESS PERIOD     55
 UBDSV1 SAVING           STO-SY ON UNIT   1016 AT TIME STEP      6, STRESS PERIOD     55
 UBDSV1 SAVING     FLOW-JA-FACE ON UNIT   1016 AT TIME STEP      6, STRESS PERIOD     55
 UBDSV06 SAVING              RCH IN MODEL TEST_TRANS       PACKAGE TEST_TRANS      CONNECTED TO MODEL TEST_TRANS       PACKAGE RCHA             ON UNIT   1016 AT TIME STEP      6, STRESS PERIOD     55
 UBDSV06 SAVING              CHD IN MODEL TEST_TRANS       PACKAGE TEST_TRANS      CONNECTED TO MODEL TEST_TRANS       PACKAGE CHD              ON UNIT   1016 AT TIME STEP      6, STRESS PERIOD     55

 HEAD WILL BE SAVED ON UNIT 1017 AT END OF TIME STEP    6, STRESS PERIOD   55


  VOLUME BUDGET FOR ENTIRE MODEL AT END OF TIME STEP    6, STRESS PERIOD  55
  ---------------------------------------------------------------------------------------------------

     CUMULATIVE VOLUME      L**3       RATES FOR THIS TIME STEP      L**3/T          PACKAGE NAME    
     ------------------                 ------------------------                     ----------------

           IN:                                      IN:
           ---                                      ---
              STO-SS =          72.1180                STO-SS =       6.9844E-02     STORAGE         
              STO-SY =       46018.7979                STO-SY =          43.5701     STORAGE         
                 RCH =      264599.2978                   RCH =          47.6712     RCHA            
                 CHD =         400.5133                   CHD =           0.0000     CHD             

            TOTAL IN =      311090.7271              TOTAL IN =          91.3112

          OUT:                                     OUT:
          ----                                     ----
              STO-SS =          64.3585                STO-SS =       3.0423E-02     STORAGE         
              STO-SY =       41539.0611                STO-SY =          20.2543     STORAGE         
                 RCH =           0.0000                   RCH =           0.0000     RCHA            
                 CHD =      269489.3668                   CHD =          71.0287     CHD             

           TOTAL OUT =      311092.7864             TOTAL OUT =          91.3134

            IN - OUT =          -2.0593              IN - OUT =      -2.1631E-03

 PERCENT DISCREPANCY =          -0.00     PERCENT DISCREPANCY =          -0.00




         TIME SUMMARY AT END OF TIME STEP    6 IN STRESS PERIOD   55
                    SECONDS     MINUTES      HOURS       DAYS        YEARS
                    -----------------------------------------------------------
   TIME STEP LENGTH 2.59200E+05  4320.0      72.000      3.0000     8.21355E-03
 STRESS PERIOD TIME 1.55520E+06  25920.      432.00      18.000     4.92813E-02
         TOTAL TIME 1.39018E+08 2.31696E+06  38616.      1609.0      4.4052    
 UBDSV1 SAVING           STO-SS ON UNIT   1016 AT TIME STEP      7, STRESS PERIOD     55
 UBDSV1 SAVING           STO-SY ON UNIT   1016 AT TIME STEP      7, STRESS PERIOD     55
 UBDSV1 SAVING     FLOW-JA-FACE ON UNIT   1016 AT TIME STEP      7, STRESS PERIOD     55
 UBDSV06 SAVING              RCH IN MODEL TEST_TRANS       PACKAGE TEST_TRANS      CONNECTED TO MODEL TEST_TRANS       PACKAGE RCHA             ON UNIT   1016 AT TIME STEP      7, STRESS PERIOD     55
 UBDSV06 SAVING              CHD IN MODEL TEST_TRANS       PACKAGE TEST_TRANS      CONNECTED TO MODEL TEST_TRANS       PACKAGE CHD              ON UNIT   1016 AT TIME STEP      7, STRESS PERIOD     55

 HEAD WILL BE SAVED ON UNIT 1017 AT END OF TIME STEP    7, STRESS PERIOD   55


  VOLUME BUDGET FOR ENTIRE MODEL AT END OF TIME STEP    7, STRESS PERIOD  55
  ---------------------------------------------------------------------------------------------------

     CUMULATIVE VOLUME      L**3       RATES FOR THIS TIME STEP      L**3/T          PACKAGE NAME    
     ------------------                 ------------------------                     ----------------

           IN:                                      IN:
           ---                                      ---
              STO-SS =          72.3169                STO-SS =       6.6299E-02     STORAGE         
              STO-SY =       46142.9532                STO-SY =          41.3851     STORAGE         
                 RCH =      264742.3115                   RCH =          47.6712     RCHA            
                 CHD =         400.5133                   CHD =           0.0000     CHD             

            TOTAL IN =      311358.0949              TOTAL IN =          89.1226

          OUT:                                     OUT:
          ----                                     ----
              STO-SS =          64.4267                STO-SS =       2.2756E-02     STORAGE         
              STO-SY =       41584.4495                STO-SY =          15.1295     STORAGE         
                 RCH =           0.0000                   RCH =           0.0000     RCHA            
                 CHD =      269711.2822                   CHD =          73.9718     CHD             

           TOTAL OUT =      311360.1584             TOTAL OUT =          89.1240

            IN - OUT =          -2.0635              IN - OUT =      -1.4100E-03

 PERCENT DISCREPANCY =          -0.00     PERCENT DISCREPANCY =          -0.00




         TIME SUMMARY AT END OF TIME STEP    7 IN STRESS PERIOD   55
                    SECONDS     MINUTES      HOURS       DAYS        YEARS
                    -----------------------------------------------------------
   TIME STEP LENGTH 2.59200E+05  4320.0      72.000      3.0000     8.21355E-03
 STRESS PERIOD TIME 1.81440E+06  30240.      504.00      21.000     5.74949E-02
         TOTAL TIME 1.39277E+08 2.32128E+06  38688.      1612.0      4.4134    
 UBDSV1 SAVING           STO-SS ON UNIT   1016 AT TIME STEP      8, STRESS PERIOD     55
 UBDSV1 SAVING           STO-SY ON UNIT   1016 AT TIME STEP      8, STRESS PERIOD     55
 UBDSV1 SAVING     FLOW-JA-FACE ON UNIT   1016 AT TIME STEP      8, STRESS PERIOD     55
 UBDSV06 SAVING              RCH IN MODEL TEST_TRANS       PACKAGE TEST_TRANS      CONNECTED TO MODEL TEST_TRANS       PACKAGE RCHA             ON UNIT   1016 AT TIME STEP      8, STRESS PERIOD     55
 UBDSV06 SAVING              CHD IN MODEL TEST_TRANS       PACKAGE TEST_TRANS      CONNECTED TO MODEL TEST_TRANS       PACKAGE CHD              ON UNIT   1016 AT TIME STEP      8, STRESS PERIOD     55

 HEAD WILL BE SAVED ON UNIT 1017 AT END OF TIME STEP    8, STRESS PERIOD   55


  VOLUME BUDGET FOR ENTIRE MODEL AT END OF TIME STEP    8, STRESS PERIOD  55
  ---------------------------------------------------------------------------------------------------

     CUMULATIVE VOLUME      L**3       RATES FOR THIS TIME STEP      L**3/T          PACKAGE NAME    
     ------------------                 ------------------------                     ----------------

           IN:                                      IN:
           ---                                      ---
              STO-SS =          72.5067                STO-SS =       6.3279E-02     STORAGE         
              STO-SY =       46261.5435                STO-SY =          39.5301     STORAGE         
                 RCH =      264885.3252                   RCH =          47.6712     RCHA            
                 CHD =         400.5133                   CHD =           0.0000     CHD             

            TOTAL IN =      311619.8889              TOTAL IN =          87.2646

          OUT:                                     OUT:
          ----                                     ----
              STO-SS =          64.4772                STO-SS =       1.6821E-02     STORAGE         
              STO-SY =       41617.9776                STO-SY =          11.1760     STORAGE         
                 RCH =           0.0000                   RCH =           0.0000     RCHA            
                 CHD =      269939.5002                   CHD =          76.0727     CHD             

           TOTAL OUT =      311621.9550             TOTAL OUT =          87.2655

            IN - OUT =          -2.0661              IN - OUT =      -8.8427E-04

 PERCENT DISCREPANCY =          -0.00     PERCENT DISCREPANCY =          -0.00




         TIME SUMMARY AT END OF TIME STEP    8 IN STRESS PERIOD   55
                    SECONDS     MINUTES      HOURS       DAYS        YEARS
                    -----------------------------------------------------------
   TIME STEP LENGTH 2.59200E+05  4320.0      72.000      3.0000     8.21355E-03
 STRESS PERIOD TIME 2.07360E+06  34560.      576.00      24.000     6.57084E-02
         TOTAL TIME 1.39536E+08 2.32560E+06  38760.      1615.0      4.4216    
 UBDSV1 SAVING           STO-SS ON UNIT   1016 AT TIME STEP      9, STRESS PERIOD     55
 UBDSV1 SAVING           STO-SY ON UNIT   1016 AT TIME STEP      9, STRESS PERIOD     55
 UBDSV1 SAVING     FLOW-JA-FACE ON UNIT   1016 AT TIME STEP      9, STRESS PERIOD     55
 UBDSV06 SAVING              RCH IN MODEL TEST_TRANS       PACKAGE TEST_TRANS      CONNECTED TO MODEL TEST_TRANS       PACKAGE RCHA             ON UNIT   1016 AT TIME STEP      9, STRESS PERIOD     55
 UBDSV06 SAVING              CHD IN MODEL TEST_TRANS       PACKAGE TEST_TRANS      CONNECTED TO MODEL TEST_TRANS       PACKAGE CHD              ON UNIT   1016 AT TIME STEP      9, STRESS PERIOD     55

 HEAD WILL BE SAVED ON UNIT 1017 AT END OF TIME STEP    9, STRESS PERIOD   55


  VOLUME BUDGET FOR ENTIRE MODEL AT END OF TIME STEP    9, STRESS PERIOD  55
  ---------------------------------------------------------------------------------------------------

     CUMULATIVE VOLUME      L**3       RATES FOR THIS TIME STEP      L**3/T          PACKAGE NAME    
     ------------------                 ------------------------                     ----------------

           IN:                                      IN:
           ---                                      ---
              STO-SS =          72.6888                STO-SS =       6.0697E-02     STORAGE         
              STO-SY =       46375.3893                STO-SY =          37.9486     STORAGE         
                 RCH =      265028.3389                   RCH =          47.6712     RCHA            
                 CHD =         400.5133                   CHD =           0.0000     CHD             

            TOTAL IN =      311876.9303              TOTAL IN =          85.6805

          OUT:                                     OUT:
          ----                                     ----
              STO-SS =          64.5136                STO-SS =       1.2150E-02     STORAGE         
              STO-SY =       41642.1956                STO-SY =           8.0727     STORAGE         
                 RCH =           0.0000                   RCH =           0.0000     RCHA            
                 CHD =      270172.2887                   CHD =          77.5962     CHD             

           TOTAL OUT =      311878.9979             TOTAL OUT =          85.6810

            IN - OUT =          -2.0676              IN - OUT =      -4.8470E-04

 PERCENT DISCREPANCY =          -0.00     PERCENT DISCREPANCY =          -0.00




         TIME SUMMARY AT END OF TIME STEP    9 IN STRESS PERIOD   55
                    SECONDS     MINUTES      HOURS       DAYS        YEARS
                    -----------------------------------------------------------
   TIME STEP LENGTH 2.59200E+05  4320.0      72.000      3.0000     8.21355E-03
 STRESS PERIOD TIME 2.33280E+06  38880.      648.00      27.000     7.39220E-02
         TOTAL TIME 1.39795E+08 2.32992E+06  38832.      1618.0      4.4298    
 UBDSV1 SAVING           STO-SS ON UNIT   1016 AT TIME STEP     10, STRESS PERIOD     55
 UBDSV1 SAVING           STO-SY ON UNIT   1016 AT TIME STEP     10, STRESS PERIOD     55
 UBDSV1 SAVING     FLOW-JA-FACE ON UNIT   1016 AT TIME STEP     10, STRESS PERIOD     55
 UBDSV06 SAVING              RCH IN MODEL TEST_TRANS       PACKAGE TEST_TRANS      CONNECTED TO MODEL TEST_TRANS       PACKAGE RCHA             ON UNIT   1016 AT TIME STEP     10, STRESS PERIOD     55
 UBDSV06 SAVING              CHD IN MODEL TEST_TRANS       PACKAGE TEST_TRANS      CONNECTED TO MODEL TEST_TRANS       PACKAGE CHD              ON UNIT   1016 AT TIME STEP     10, STRESS PERIOD     55

 HEAD WILL BE SAVED ON UNIT 1017 AT END OF TIME STEP   10, STRESS PERIOD   55


  VOLUME BUDGET FOR ENTIRE MODEL AT END OF TIME STEP   10, STRESS PERIOD  55
  ---------------------------------------------------------------------------------------------------

     CUMULATIVE VOLUME      L**3       RATES FOR THIS TIME STEP      L**3/T          PACKAGE NAME    
     ------------------                 ------------------------                     ----------------

           IN:                                      IN:
           ---                                      ---
              STO-SS =          72.8647                STO-SS =       5.8608E-02     STORAGE         
              STO-SY =       46485.4203                STO-SY =          36.6770     STORAGE         
                 RCH =      265171.3526                   RCH =          47.6712     RCHA            
                 CHD =         400.5133                   CHD =           0.0000     CHD             

            TOTAL IN =      312130.1509              TOTAL IN =          84.4068

          OUT:                                     OUT:
          ----                                     ----
              STO-SS =          64.5393                STO-SS =       8.5701E-03     STORAGE         
              STO-SY =       41659.2852                STO-SY =           5.6965     STORAGE         
                 RCH =           0.0000                   RCH =           0.0000     RCHA            
                 CHD =      270408.4261                   CHD =          78.7125     CHD             

           TOTAL OUT =      312132.2506             TOTAL OUT =          84.4176

            IN - OUT =          -2.0997              IN - OUT =      -1.0706E-02

 PERCENT DISCREPANCY =          -0.00     PERCENT DISCREPANCY =          -0.01




         TIME SUMMARY AT END OF TIME STEP   10 IN STRESS PERIOD   55
                    SECONDS     MINUTES      HOURS       DAYS        YEARS
                    -----------------------------------------------------------
   TIME STEP LENGTH 2.59200E+05  4320.0      72.000      3.0000     8.21355E-03
 STRESS PERIOD TIME 2.59200E+06  43200.      720.00      30.000     8.21355E-02
         TOTAL TIME 1.40054E+08 2.33424E+06  38904.      1621.0      4.4381    

 OUTPUT CONTROL FOR STRESS PERIOD 56 IS REPEATED USING SETTINGS FROM A PREVIOUS STRESS PERIOD.


 STRESS PERIOD 56 IS TRANSIENT


                 RECHARGE =  0.1095890E-02
 UBDSV1 SAVING           STO-SS ON UNIT   1016 AT TIME STEP      1, STRESS PERIOD     56
 UBDSV1 SAVING           STO-SY ON UNIT   1016 AT TIME STEP      1, STRESS PERIOD     56
 UBDSV1 SAVING     FLOW-JA-FACE ON UNIT   1016 AT TIME STEP      1, STRESS PERIOD     56
 UBDSV06 SAVING              RCH IN MODEL TEST_TRANS       PACKAGE TEST_TRANS      CONNECTED TO MODEL TEST_TRANS       PACKAGE RCHA             ON UNIT   1016 AT TIME STEP      1, STRESS PERIOD     56
 UBDSV06 SAVING              CHD IN MODEL TEST_TRANS       PACKAGE TEST_TRANS      CONNECTED TO MODEL TEST_TRANS       PACKAGE CHD              ON UNIT   1016 AT TIME STEP      1, STRESS PERIOD     56

 HEAD WILL BE SAVED ON UNIT 1017 AT END OF TIME STEP    1, STRESS PERIOD   56


  VOLUME BUDGET FOR ENTIRE MODEL AT END OF TIME STEP    1, STRESS PERIOD  56
  ---------------------------------------------------------------------------------------------------

     CUMULATIVE VOLUME      L**3       RATES FOR THIS TIME STEP      L**3/T          PACKAGE NAME    
     ------------------                 ------------------------                     ----------------

           IN:                                      IN:
           ---                                      ---
              STO-SS =          73.6174                STO-SS =           0.2509     STORAGE         
              STO-SY =       46995.7699                STO-SY =         170.1166     STORAGE         
                 RCH =      265457.3799                   RCH =          95.3424     RCHA            
                 CHD =         400.5133                   CHD =           0.0000     CHD             

            TOTAL IN =      312927.2806              TOTAL IN =         265.7099

          OUT:                                     OUT:
          ----                                     ----
              STO-SS =          64.5622                STO-SS =       7.6097E-03     STORAGE         
              STO-SY =       41673.9761                STO-SY =           4.8970     STORAGE         
                 RCH =           0.0000                   RCH =           0.0000     RCHA            
                 CHD =      271190.8444                   CHD =         260.8061     CHD             

           TOTAL OUT =      312929.3827             TOTAL OUT =         265.7107

            IN - OUT =          -2.1021              IN - OUT =      -7.8546E-04

 PERCENT DISCREPANCY =          -0.00     PERCENT DISCREPANCY =          -0.00




         TIME SUMMARY AT END OF TIME STEP    1 IN STRESS PERIOD   56
                    SECONDS     MINUTES      HOURS       DAYS        YEARS
                    -----------------------------------------------------------
   TIME STEP LENGTH 2.59200E+05  4320.0      72.000      3.0000     8.21355E-03
 STRESS PERIOD TIME 2.59200E+05  4320.0      72.000      3.0000     8.21355E-03
         TOTAL TIME 1.40314E+08 2.33856E+06  38976.      1624.0      4.4463    
 UBDSV1 SAVING           STO-SS ON UNIT   1016 AT TIME STEP      2, STRESS PERIOD     56
 UBDSV1 SAVING           STO-SY ON UNIT   1016 AT TIME STEP      2, STRESS PERIOD     56
 UBDSV1 SAVING     FLOW-JA-FACE ON UNIT   1016 AT TIME STEP      2, STRESS PERIOD     56
 UBDSV06 SAVING              RCH IN MODEL TEST_TRANS       PACKAGE TEST_TRANS      CONNECTED TO MODEL TEST_TRANS       PACKAGE RCHA             ON UNIT   1016 AT TIME STEP      2, STRESS PERIOD     56
 UBDSV06 SAVING              CHD IN MODEL TEST_TRANS       PACKAGE TEST_TRANS      CONNECTED TO MODEL TEST_TRANS       PACKAGE CHD              ON UNIT   1016 AT TIME STEP      2, STRESS PERIOD     56

 HEAD WILL BE SAVED ON UNIT 1017 AT END OF TIME STEP    2, STRESS PERIOD   56


  VOLUME BUDGET FOR ENTIRE MODEL AT END OF TIME STEP    2, STRESS PERIOD  56
  ---------------------------------------------------------------------------------------------------

     CUMULATIVE VOLUME      L**3       RATES FOR THIS TIME STEP      L**3/T          PACKAGE NAME    
     ------------------                 ------------------------                     ----------------

           IN:                                      IN:
           ---                                      ---
              STO-SS =          74.0671                STO-SS =           0.1499     STORAGE         
              STO-SY =       47299.0982                STO-SY =         101.1094     STORAGE         
                 RCH =      265743.4072                   RCH =          95.3424     RCHA            
                 CHD =         400.5133                   CHD =           0.0000     CHD             

            TOTAL IN =      313517.0858              TOTAL IN =         196.6017

          OUT:                                     OUT:
          ----                                     ----
              STO-SS =          64.5663                STO-SS =       1.3819E-03     STORAGE         
              STO-SY =       41676.6260                STO-SY =           0.8833     STORAGE         
                 RCH =           0.0000                   RCH =           0.0000     RCHA            
                 CHD =      271778.0018                   CHD =         195.7191     CHD             

           TOTAL OUT =      313519.1941             TOTAL OUT =         196.6038

            IN - OUT =          -2.1083              IN - OUT =      -2.0811E-03

 PERCENT DISCREPANCY =          -0.00     PERCENT DISCREPANCY =          -0.00




         TIME SUMMARY AT END OF TIME STEP    2 IN STRESS PERIOD   56
                    SECONDS     MINUTES      HOURS       DAYS        YEARS
                    -----------------------------------------------------------
   TIME STEP LENGTH 2.59200E+05  4320.0      72.000      3.0000     8.21355E-03
 STRESS PERIOD TIME 5.18400E+05  8640.0      144.00      6.0000     1.64271E-02
         TOTAL TIME 1.40573E+08 2.34288E+06  39048.      1627.0      4.4545    
 UBDSV1 SAVING           STO-SS ON UNIT   1016 AT TIME STEP      3, STRESS PERIOD     56
 UBDSV1 SAVING           STO-SY ON UNIT   1016 AT TIME STEP      3, STRESS PERIOD     56
 UBDSV1 SAVING     FLOW-JA-FACE ON UNIT   1016 AT TIME STEP      3, STRESS PERIOD     56
 UBDSV06 SAVING              RCH IN MODEL TEST_TRANS       PACKAGE TEST_TRANS      CONNECTED TO MODEL TEST_TRANS       PACKAGE RCHA             ON UNIT   1016 AT TIME STEP      3, STRESS PERIOD     56
 UBDSV06 SAVING              CHD IN MODEL TEST_TRANS       PACKAGE TEST_TRANS      CONNECTED TO MODEL TEST_TRANS       PACKAGE CHD              ON UNIT   1016 AT TIME STEP      3, STRESS PERIOD     56

 HEAD WILL BE SAVED ON UNIT 1017 AT END OF TIME STEP    3, STRESS PERIOD   56


  VOLUME BUDGET FOR ENTIRE MODEL AT END OF TIME STEP    3, STRESS PERIOD  56
  ---------------------------------------------------------------------------------------------------

     CUMULATIVE VOLUME      L**3       RATES FOR THIS TIME STEP      L**3/T          PACKAGE NAME    
     ------------------                 ------------------------                     ----------------

           IN:                                      IN:
           ---                                      ---
              STO-SS =          74.4045                STO-SS =           0.1125     STORAGE         
              STO-SY =       47524.8673                STO-SY =          75.2564     STORAGE         
                 RCH =      266029.4345                   RCH =          95.3424     RCHA            
                 CHD =         400.5133                   CHD =           0.0000     CHD             

            TOTAL IN =      314029.2196              TOTAL IN =         170.7113

          OUT:                                     OUT:
          ----                                     ----
              STO-SS =          64.5663                STO-SS =           0.0000     STORAGE         
              STO-SY =       41676.6260                STO-SY =           0.0000     STORAGE         
                 RCH =           0.0000                   RCH =           0.0000     RCHA            
                 CHD =      272290.1298                   CHD =         170.7093     CHD             

           TOTAL OUT =      314031.3222             TOTAL OUT =         170.7093

            IN - OUT =          -2.1025              IN - OUT =       1.9313E-03

 PERCENT DISCREPANCY =          -0.00     PERCENT DISCREPANCY =           0.00




         TIME SUMMARY AT END OF TIME STEP    3 IN STRESS PERIOD   56
                    SECONDS     MINUTES      HOURS       DAYS        YEARS
                    -----------------------------------------------------------
   TIME STEP LENGTH 2.59200E+05  4320.0      72.000      3.0000     8.21355E-03
 STRESS PERIOD TIME 7.77600E+05  12960.      216.00      9.0000     2.46407E-02
         TOTAL TIME 1.40832E+08 2.34720E+06  39120.      1630.0      4.4627    
 UBDSV1 SAVING           STO-SS ON UNIT   1016 AT TIME STEP      4, STRESS PERIOD     56
 UBDSV1 SAVING           STO-SY ON UNIT   1016 AT TIME STEP      4, STRESS PERIOD     56
 UBDSV1 SAVING     FLOW-JA-FACE ON UNIT   1016 AT TIME STEP      4, STRESS PERIOD     56
 UBDSV06 SAVING              RCH IN MODEL TEST_TRANS       PACKAGE TEST_TRANS      CONNECTED TO MODEL TEST_TRANS       PACKAGE RCHA             ON UNIT   1016 AT TIME STEP      4, STRESS PERIOD     56
 UBDSV06 SAVING              CHD IN MODEL TEST_TRANS       PACKAGE TEST_TRANS      CONNECTED TO MODEL TEST_TRANS       PACKAGE CHD              ON UNIT   1016 AT TIME STEP      4, STRESS PERIOD     56

 HEAD WILL BE SAVED ON UNIT 1017 AT END OF TIME STEP    4, STRESS PERIOD   56


  VOLUME BUDGET FOR ENTIRE MODEL AT END OF TIME STEP    4, STRESS PERIOD  56
  ---------------------------------------------------------------------------------------------------

     CUMULATIVE VOLUME      L**3       RATES FOR THIS TIME STEP      L**3/T          PACKAGE NAME    
     ------------------                 ------------------------                     ----------------

           IN:                                      IN:
           ---                                      ---
              STO-SS =          74.6862                STO-SS =       9.3877E-02     STORAGE         
              STO-SY =       47711.9612                STO-SY =          62.3646     STORAGE         
                 RCH =      266315.4618                   RCH =          95.3424     RCHA            
                 CHD =         400.5133                   CHD =           0.0000     CHD             

            TOTAL IN =      314502.6225              TOTAL IN =         157.8009

          OUT:                                     OUT:
          ----                                     ----
              STO-SS =          64.5663                STO-SS =           0.0000     STORAGE         
              STO-SY =       41676.6260                STO-SY =           0.0000     STORAGE         
                 RCH =           0.0000                   RCH =           0.0000     RCHA            
                 CHD =      272763.5224                   CHD =         157.7975     CHD             

           TOTAL OUT =      314504.7147             TOTAL OUT =         157.7975

            IN - OUT =          -2.0922              IN - OUT =       3.4310E-03

 PERCENT DISCREPANCY =          -0.00     PERCENT DISCREPANCY =           0.00




         TIME SUMMARY AT END OF TIME STEP    4 IN STRESS PERIOD   56
                    SECONDS     MINUTES      HOURS       DAYS        YEARS
                    -----------------------------------------------------------
   TIME STEP LENGTH 2.59200E+05  4320.0      72.000      3.0000     8.21355E-03
 STRESS PERIOD TIME 1.03680E+06  17280.      288.00      12.000     3.28542E-02
         TOTAL TIME 1.41091E+08 2.35152E+06  39192.      1633.0      4.4709    
 UBDSV1 SAVING           STO-SS ON UNIT   1016 AT TIME STEP      5, STRESS PERIOD     56
 UBDSV1 SAVING           STO-SY ON UNIT   1016 AT TIME STEP      5, STRESS PERIOD     56
 UBDSV1 SAVING     FLOW-JA-FACE ON UNIT   1016 AT TIME STEP      5, STRESS PERIOD     56
 UBDSV06 SAVING              RCH IN MODEL TEST_TRANS       PACKAGE TEST_TRANS      CONNECTED TO MODEL TEST_TRANS       PACKAGE RCHA             ON UNIT   1016 AT TIME STEP      5, STRESS PERIOD     56
 UBDSV06 SAVING              CHD IN MODEL TEST_TRANS       PACKAGE TEST_TRANS      CONNECTED TO MODEL TEST_TRANS       PACKAGE CHD              ON UNIT   1016 AT TIME STEP      5, STRESS PERIOD     56

 HEAD WILL BE SAVED ON UNIT 1017 AT END OF TIME STEP    5, STRESS PERIOD   56


  VOLUME BUDGET FOR ENTIRE MODEL AT END OF TIME STEP    5, STRESS PERIOD  56
  ---------------------------------------------------------------------------------------------------

     CUMULATIVE VOLUME      L**3       RATES FOR THIS TIME STEP      L**3/T          PACKAGE NAME    
     ------------------                 ------------------------                     ----------------

           IN:                                      IN:
           ---                                      ---
              STO-SS =          74.9334                STO-SS =       8.2403E-02     STORAGE         
              STO-SY =       47875.2609                STO-SY =          54.4332     STORAGE         
                 RCH =      266601.4891                   RCH =          95.3424     RCHA            
                 CHD =         400.5133                   CHD =           0.0000     CHD             

            TOTAL IN =      314952.1967              TOTAL IN =         149.8581

          OUT:                                     OUT:
          ----                                     ----
              STO-SS =          64.5663                STO-SS =           0.0000     STORAGE         
              STO-SY =       41676.6260                STO-SY =           0.0000     STORAGE         
                 RCH =           0.0000                   RCH =           0.0000     RCHA            
                 CHD =      273213.0868                   CHD =         149.8548     CHD             

           TOTAL OUT =      314954.2791             TOTAL OUT =         149.8548

            IN - OUT =          -2.0825              IN - OUT =       3.2519E-03

 PERCENT DISCREPANCY =          -0.00     PERCENT DISCREPANCY =           0.00




         TIME SUMMARY AT END OF TIME STEP    5 IN STRESS PERIOD   56
                    SECONDS     MINUTES      HOURS       DAYS        YEARS
                    -----------------------------------------------------------
   TIME STEP LENGTH 2.59200E+05  4320.0      72.000      3.0000     8.21355E-03
 STRESS PERIOD TIME 1.29600E+06  21600.      360.00      15.000     4.10678E-02
         TOTAL TIME 1.41350E+08 2.35584E+06  39264.      1636.0      4.4791    
 UBDSV1 SAVING           STO-SS ON UNIT   1016 AT TIME STEP      6, STRESS PERIOD     56
 UBDSV1 SAVING           STO-SY ON UNIT   1016 AT TIME STEP      6, STRESS PERIOD     56
 UBDSV1 SAVING     FLOW-JA-FACE ON UNIT   1016 AT TIME STEP      6, STRESS PERIOD     56
 UBDSV06 SAVING              RCH IN MODEL TEST_TRANS       PACKAGE TEST_TRANS      CONNECTED TO MODEL TEST_TRANS       PACKAGE RCHA             ON UNIT   1016 AT TIME STEP      6, STRESS PERIOD     56
 UBDSV06 SAVING              CHD IN MODEL TEST_TRANS       PACKAGE TEST_TRANS      CONNECTED TO MODEL TEST_TRANS       PACKAGE CHD              ON UNIT   1016 AT TIME STEP      6, STRESS PERIOD     56

 HEAD WILL BE SAVED ON UNIT 1017 AT END OF TIME STEP    6, STRESS PERIOD   56


  VOLUME BUDGET FOR ENTIRE MODEL AT END OF TIME STEP    6, STRESS PERIOD  56
  ---------------------------------------------------------------------------------------------------

     CUMULATIVE VOLUME      L**3       RATES FOR THIS TIME STEP      L**3/T          PACKAGE NAME    
     ------------------                 ------------------------                     ----------------

           IN:                                      IN:
           ---                                      ---
              STO-SS =          75.1570                STO-SS =       7.4525E-02     STORAGE         
              STO-SY =       48022.2733                STO-SY =          49.0042     STORAGE         
                 RCH =      266887.5164                   RCH =          95.3424     RCHA            
                 CHD =         400.5133                   CHD =           0.0000     CHD             

            TOTAL IN =      315385.4600              TOTAL IN =         144.4211

          OUT:                                     OUT:
          ----                                     ----
              STO-SS =          64.5663                STO-SS =           0.0000     STORAGE         
              STO-SY =       41676.6260                STO-SY =           0.0000     STORAGE         
                 RCH =           0.0000                   RCH =           0.0000     RCHA            
                 CHD =      273646.3418                   CHD =         144.4183     CHD             

           TOTAL OUT =      315387.5342             TOTAL OUT =         144.4183

            IN - OUT =          -2.0742              IN - OUT =       2.7689E-03

 PERCENT DISCREPANCY =          -0.00     PERCENT DISCREPANCY =           0.00




         TIME SUMMARY AT END OF TIME STEP    6 IN STRESS PERIOD   56
                    SECONDS     MINUTES      HOURS       DAYS        YEARS
                    -----------------------------------------------------------
   TIME STEP LENGTH 2.59200E+05  4320.0      72.000      3.0000     8.21355E-03
 STRESS PERIOD TIME 1.55520E+06  25920.      432.00      18.000     4.92813E-02
         TOTAL TIME 1.41610E+08 2.36016E+06  39336.      1639.0      4.4873    
 UBDSV1 SAVING           STO-SS ON UNIT   1016 AT TIME STEP      7, STRESS PERIOD     56
 UBDSV1 SAVING           STO-SY ON UNIT   1016 AT TIME STEP      7, STRESS PERIOD     56
 UBDSV1 SAVING     FLOW-JA-FACE ON UNIT   1016 AT TIME STEP      7, STRESS PERIOD     56
 UBDSV06 SAVING              RCH IN MODEL TEST_TRANS       PACKAGE TEST_TRANS      CONNECTED TO MODEL TEST_TRANS       PACKAGE RCHA             ON UNIT   1016 AT TIME STEP      7, STRESS PERIOD     56
 UBDSV06 SAVING              CHD IN MODEL TEST_TRANS       PACKAGE TEST_TRANS      CONNECTED TO MODEL TEST_TRANS       PACKAGE CHD              ON UNIT   1016 AT TIME STEP      7, STRESS PERIOD     56

 HEAD WILL BE SAVED ON UNIT 1017 AT END OF TIME STEP    7, STRESS PERIOD   56


  VOLUME BUDGET FOR ENTIRE MODEL AT END OF TIME STEP    7, STRESS PERIOD  56
  ---------------------------------------------------------------------------------------------------

     CUMULATIVE VOLUME      L**3       RATES FOR THIS TIME STEP      L**3/T          PACKAGE NAME    
     ------------------                 ------------------------                     ----------------

           IN:                                      IN:
           ---                                      ---
              STO-SS =          75.3631                STO-SS =       6.8724E-02     STORAGE         
              STO-SY =       48157.3359                STO-SY =          45.0209     STORAGE         
                 RCH =      267173.5437                   RCH =          95.3424     RCHA            
                 CHD =         400.5133                   CHD =           0.0000     CHD             

            TOTAL IN =      315806.7560              TOTAL IN =         140.4320

          OUT:                                     OUT:
          ----                                     ----
              STO-SS =          64.5663                STO-SS =           0.0000     STORAGE         
              STO-SY =       41676.6260                STO-SY =           0.0000     STORAGE         
                 RCH =           0.0000                   RCH =           0.0000     RCHA            
                 CHD =      274067.6192                   CHD =         140.4258     CHD             

           TOTAL OUT =      315808.8116             TOTAL OUT =         140.4258

            IN - OUT =          -2.0555              IN - OUT =       6.2095E-03

 PERCENT DISCREPANCY =          -0.00     PERCENT DISCREPANCY =           0.00




         TIME SUMMARY AT END OF TIME STEP    7 IN STRESS PERIOD   56
                    SECONDS     MINUTES      HOURS       DAYS        YEARS
                    -----------------------------------------------------------
   TIME STEP LENGTH 2.59200E+05  4320.0      72.000      3.0000     8.21355E-03
 STRESS PERIOD TIME 1.81440E+06  30240.      504.00      21.000     5.74949E-02
         TOTAL TIME 1.41869E+08 2.36448E+06  39408.      1642.0      4.4956    
 UBDSV1 SAVING           STO-SS ON UNIT   1016 AT TIME STEP      8, STRESS PERIOD     56
 UBDSV1 SAVING           STO-SY ON UNIT   1016 AT TIME STEP      8, STRESS PERIOD     56
 UBDSV1 SAVING     FLOW-JA-FACE ON UNIT   1016 AT TIME STEP      8, STRESS PERIOD     56
 UBDSV06 SAVING              RCH IN MODEL TEST_TRANS       PACKAGE TEST_TRANS      CONNECTED TO MODEL TEST_TRANS       PACKAGE RCHA             ON UNIT   1016 AT TIME STEP      8, STRESS PERIOD     56
 UBDSV06 SAVING              CHD IN MODEL TEST_TRANS       PACKAGE TEST_TRANS      CONNECTED TO MODEL TEST_TRANS       PACKAGE CHD              ON UNIT   1016 AT TIME STEP      8, STRESS PERIOD     56

 HEAD WILL BE SAVED ON UNIT 1017 AT END OF TIME STEP    8, STRESS PERIOD   56


  VOLUME BUDGET FOR ENTIRE MODEL AT END OF TIME STEP    8, STRESS PERIOD  56
  ---------------------------------------------------------------------------------------------------

     CUMULATIVE VOLUME      L**3       RATES FOR THIS TIME STEP      L**3/T          PACKAGE NAME    
     ------------------                 ------------------------                     ----------------

           IN:                                      IN:
           ---                                      ---
              STO-SS =          75.5558                STO-SS =       6.4224E-02     STORAGE         
              STO-SY =       48283.1640                STO-SY =          41.9427     STORAGE         
                 RCH =      267459.5709                   RCH =          95.3424     RCHA            
                 CHD =         400.5133                   CHD =           0.0000     CHD             

            TOTAL IN =      316218.8041              TOTAL IN =         137.3494

          OUT:                                     OUT:
          ----                                     ----
              STO-SS =          64.5663                STO-SS =           0.0000     STORAGE         
              STO-SY =       41676.6260                STO-SY =           0.0000     STORAGE         
                 RCH =           0.0000                   RCH =           0.0000     RCHA            
                 CHD =      274479.6519                   CHD =         137.3442     CHD             

           TOTAL OUT =      316220.8442             TOTAL OUT =         137.3442

            IN - OUT =          -2.0401              IN - OUT =       5.1355E-03

 PERCENT DISCREPANCY =          -0.00     PERCENT DISCREPANCY =           0.00




         TIME SUMMARY AT END OF TIME STEP    8 IN STRESS PERIOD   56
                    SECONDS     MINUTES      HOURS       DAYS        YEARS
                    -----------------------------------------------------------
   TIME STEP LENGTH 2.59200E+05  4320.0      72.000      3.0000     8.21355E-03
 STRESS PERIOD TIME 2.07360E+06  34560.      576.00      24.000     6.57084E-02
         TOTAL TIME 1.42128E+08 2.36880E+06  39480.      1645.0      4.5038    
 UBDSV1 SAVING           STO-SS ON UNIT   1016 AT TIME STEP      9, STRESS PERIOD     56
 UBDSV1 SAVING           STO-SY ON UNIT   1016 AT TIME STEP      9, STRESS PERIOD     56
 UBDSV1 SAVING     FLOW-JA-FACE ON UNIT   1016 AT TIME STEP      9, STRESS PERIOD     56
 UBDSV06 SAVING              RCH IN MODEL TEST_TRANS       PACKAGE TEST_TRANS      CONNECTED TO MODEL TEST_TRANS       PACKAGE RCHA             ON UNIT   1016 AT TIME STEP      9, STRESS PERIOD     56
 UBDSV06 SAVING              CHD IN MODEL TEST_TRANS       PACKAGE TEST_TRANS      CONNECTED TO MODEL TEST_TRANS       PACKAGE CHD              ON UNIT   1016 AT TIME STEP      9, STRESS PERIOD     56

 HEAD WILL BE SAVED ON UNIT 1017 AT END OF TIME STEP    9, STRESS PERIOD   56


  VOLUME BUDGET FOR ENTIRE MODEL AT END OF TIME STEP    9, STRESS PERIOD  56
  ---------------------------------------------------------------------------------------------------

     CUMULATIVE VOLUME      L**3       RATES FOR THIS TIME STEP      L**3/T          PACKAGE NAME    
     ------------------                 ------------------------                     ----------------

           IN:                                      IN:
           ---                                      ---
              STO-SS =          75.7376                STO-SS =       6.0604E-02     STORAGE         
              STO-SY =       48401.5938                STO-SY =          39.4766     STORAGE         
                 RCH =      267745.5982                   RCH =          95.3424     RCHA            
                 CHD =         400.5133                   CHD =           0.0000     CHD             

            TOTAL IN =      316623.4430              TOTAL IN =         134.8796

          OUT:                                     OUT:
          ----                                     ----
              STO-SS =          64.5663                STO-SS =           0.0000     STORAGE         
              STO-SY =       41676.6260                STO-SY =           0.0000     STORAGE         
                 RCH =           0.0000                   RCH =           0.0000     RCHA            
                 CHD =      274884.2777                   CHD =         134.8753     CHD             

           TOTAL OUT =      316625.4701             TOTAL OUT =         134.8753

            IN - OUT =          -2.0271              IN - OUT =       4.3423E-03

 PERCENT DISCREPANCY =          -0.00     PERCENT DISCREPANCY =           0.00




         TIME SUMMARY AT END OF TIME STEP    9 IN STRESS PERIOD   56
                    SECONDS     MINUTES      HOURS       DAYS        YEARS
                    -----------------------------------------------------------
   TIME STEP LENGTH 2.59200E+05  4320.0      72.000      3.0000     8.21355E-03
 STRESS PERIOD TIME 2.33280E+06  38880.      648.00      27.000     7.39220E-02
         TOTAL TIME 1.42387E+08 2.37312E+06  39552.      1648.0      4.5120    
 UBDSV1 SAVING           STO-SS ON UNIT   1016 AT TIME STEP     10, STRESS PERIOD     56
 UBDSV1 SAVING           STO-SY ON UNIT   1016 AT TIME STEP     10, STRESS PERIOD     56
 UBDSV1 SAVING     FLOW-JA-FACE ON UNIT   1016 AT TIME STEP     10, STRESS PERIOD     56
 UBDSV06 SAVING              RCH IN MODEL TEST_TRANS       PACKAGE TEST_TRANS      CONNECTED TO MODEL TEST_TRANS       PACKAGE RCHA             ON UNIT   1016 AT TIME STEP     10, STRESS PERIOD     56
 UBDSV06 SAVING              CHD IN MODEL TEST_TRANS       PACKAGE TEST_TRANS      CONNECTED TO MODEL TEST_TRANS       PACKAGE CHD              ON UNIT   1016 AT TIME STEP     10, STRESS PERIOD     56

 HEAD WILL BE SAVED ON UNIT 1017 AT END OF TIME STEP   10, STRESS PERIOD   56


  VOLUME BUDGET FOR ENTIRE MODEL AT END OF TIME STEP   10, STRESS PERIOD  56
  ---------------------------------------------------------------------------------------------------

     CUMULATIVE VOLUME      L**3       RATES FOR THIS TIME STEP      L**3/T          PACKAGE NAME    
     ------------------                 ------------------------                     ----------------

           IN:                                      IN:
           ---                                      ---
              STO-SS =          75.9104                STO-SS =       5.7606E-02     STORAGE         
              STO-SY =       48513.9212                STO-SY =          37.4425     STORAGE         
                 RCH =      268031.6255                   RCH =          95.3424     RCHA            
                 CHD =         400.5133                   CHD =           0.0000     CHD             

            TOTAL IN =      317021.9705              TOTAL IN =         132.8425

          OUT:                                     OUT:
          ----                                     ----
              STO-SS =          64.5663                STO-SS =           0.0000     STORAGE         
              STO-SY =       41676.6260                STO-SY =           0.0000     STORAGE         
                 RCH =           0.0000                   RCH =           0.0000     RCHA            
                 CHD =      275282.7940                   CHD =         132.8388     CHD             

           TOTAL OUT =      317023.9864             TOTAL OUT =         132.8388

            IN - OUT =          -2.0159              IN - OUT =       3.7436E-03

 PERCENT DISCREPANCY =          -0.00     PERCENT DISCREPANCY =           0.00




         TIME SUMMARY AT END OF TIME STEP   10 IN STRESS PERIOD   56
                    SECONDS     MINUTES      HOURS       DAYS        YEARS
                    -----------------------------------------------------------
   TIME STEP LENGTH 2.59200E+05  4320.0      72.000      3.0000     8.21355E-03
 STRESS PERIOD TIME 2.59200E+06  43200.      720.00      30.000     8.21355E-02
         TOTAL TIME 1.42646E+08 2.37744E+06  39624.      1651.0      4.5202    

 OUTPUT CONTROL FOR STRESS PERIOD 57 IS REPEATED USING SETTINGS FROM A PREVIOUS STRESS PERIOD.


 STRESS PERIOD 57 IS TRANSIENT


                 RECHARGE =  0.1643840E-02
 UBDSV1 SAVING           STO-SS ON UNIT   1016 AT TIME STEP      1, STRESS PERIOD     57
 UBDSV1 SAVING           STO-SY ON UNIT   1016 AT TIME STEP      1, STRESS PERIOD     57
 UBDSV1 SAVING     FLOW-JA-FACE ON UNIT   1016 AT TIME STEP      1, STRESS PERIOD     57
 UBDSV06 SAVING              RCH IN MODEL TEST_TRANS       PACKAGE TEST_TRANS      CONNECTED TO MODEL TEST_TRANS       PACKAGE RCHA             ON UNIT   1016 AT TIME STEP      1, STRESS PERIOD     57
 UBDSV06 SAVING              CHD IN MODEL TEST_TRANS       PACKAGE TEST_TRANS      CONNECTED TO MODEL TEST_TRANS       PACKAGE CHD              ON UNIT   1016 AT TIME STEP      1, STRESS PERIOD     57

 HEAD WILL BE SAVED ON UNIT 1017 AT END OF TIME STEP    1, STRESS PERIOD   57


  VOLUME BUDGET FOR ENTIRE MODEL AT END OF TIME STEP    1, STRESS PERIOD  57
  ---------------------------------------------------------------------------------------------------

     CUMULATIVE VOLUME      L**3       RATES FOR THIS TIME STEP      L**3/T          PACKAGE NAME    
     ------------------                 ------------------------                     ----------------

           IN:                                      IN:
           ---                                      ---
              STO-SS =          76.0161                STO-SS =       3.5210E-02     STORAGE         
              STO-SY =       48587.2793                STO-SY =          24.4527     STORAGE         
                 RCH =      268460.6678                   RCH =         143.0141     RCHA            
                 CHD =         400.5133                   CHD =           0.0000     CHD             

            TOTAL IN =      317524.4765              TOTAL IN =         167.5020

          OUT:                                     OUT:
          ----                                     ----
              STO-SS =          64.6149                STO-SS =       1.6203E-02     STORAGE         
              STO-SY =       41707.1064                STO-SY =          10.1601     STORAGE         
                 RCH =           0.0000                   RCH =           0.0000     RCHA            
                 CHD =      275754.7973                   CHD =         157.3344     CHD             

           TOTAL OUT =      317526.5187             TOTAL OUT =         167.5108

            IN - OUT =          -2.0422              IN - OUT =      -8.7783E-03

 PERCENT DISCREPANCY =          -0.00     PERCENT DISCREPANCY =          -0.01




         TIME SUMMARY AT END OF TIME STEP    1 IN STRESS PERIOD   57
                    SECONDS     MINUTES      HOURS       DAYS        YEARS
                    -----------------------------------------------------------
   TIME STEP LENGTH 2.59200E+05  4320.0      72.000      3.0000     8.21355E-03
 STRESS PERIOD TIME 2.59200E+05  4320.0      72.000      3.0000     8.21355E-03
         TOTAL TIME 1.42906E+08 2.38176E+06  39696.      1654.0      4.5284    
 UBDSV1 SAVING           STO-SS ON UNIT   1016 AT TIME STEP      2, STRESS PERIOD     57
 UBDSV1 SAVING           STO-SY ON UNIT   1016 AT TIME STEP      2, STRESS PERIOD     57
 UBDSV1 SAVING     FLOW-JA-FACE ON UNIT   1016 AT TIME STEP      2, STRESS PERIOD     57
 UBDSV06 SAVING              RCH IN MODEL TEST_TRANS       PACKAGE TEST_TRANS      CONNECTED TO MODEL TEST_TRANS       PACKAGE RCHA             ON UNIT   1016 AT TIME STEP      2, STRESS PERIOD     57
 UBDSV06 SAVING              CHD IN MODEL TEST_TRANS       PACKAGE TEST_TRANS      CONNECTED TO MODEL TEST_TRANS       PACKAGE CHD              ON UNIT   1016 AT TIME STEP      2, STRESS PERIOD     57

 HEAD WILL BE SAVED ON UNIT 1017 AT END OF TIME STEP    2, STRESS PERIOD   57


  VOLUME BUDGET FOR ENTIRE MODEL AT END OF TIME STEP    2, STRESS PERIOD  57
  ---------------------------------------------------------------------------------------------------

     CUMULATIVE VOLUME      L**3       RATES FOR THIS TIME STEP      L**3/T          PACKAGE NAME    
     ------------------                 ------------------------                     ----------------

           IN:                                      IN:
           ---                                      ---
              STO-SS =          76.0820                STO-SS =       2.1986E-02     STORAGE         
              STO-SY =       48632.5550                STO-SY =          15.0919     STORAGE         
                 RCH =      268889.7100                   RCH =         143.0141     RCHA            
                 CHD =         400.5133                   CHD =           0.0000     CHD             

            TOTAL IN =      317998.8603              TOTAL IN =         158.1280

          OUT:                                     OUT:
          ----                                     ----
              STO-SS =          64.6608                STO-SS =       1.5295E-02     STORAGE         
              STO-SY =       41735.8643                STO-SY =           9.5860     STORAGE         
                 RCH =           0.0000                   RCH =           0.0000     RCHA            
                 CHD =      276200.3798                   CHD =         148.5275     CHD             

           TOTAL OUT =      318000.9049             TOTAL OUT =         158.1287

            IN - OUT =          -2.0446              IN - OUT =      -7.8964E-04

 PERCENT DISCREPANCY =          -0.00     PERCENT DISCREPANCY =          -0.00




         TIME SUMMARY AT END OF TIME STEP    2 IN STRESS PERIOD   57
                    SECONDS     MINUTES      HOURS       DAYS        YEARS
                    -----------------------------------------------------------
   TIME STEP LENGTH 2.59200E+05  4320.0      72.000      3.0000     8.21355E-03
 STRESS PERIOD TIME 5.18400E+05  8640.0      144.00      6.0000     1.64271E-02
         TOTAL TIME 1.43165E+08 2.38608E+06  39768.      1657.0      4.5366    
 UBDSV1 SAVING           STO-SS ON UNIT   1016 AT TIME STEP      3, STRESS PERIOD     57
 UBDSV1 SAVING           STO-SY ON UNIT   1016 AT TIME STEP      3, STRESS PERIOD     57
 UBDSV1 SAVING     FLOW-JA-FACE ON UNIT   1016 AT TIME STEP      3, STRESS PERIOD     57
 UBDSV06 SAVING              RCH IN MODEL TEST_TRANS       PACKAGE TEST_TRANS      CONNECTED TO MODEL TEST_TRANS       PACKAGE RCHA             ON UNIT   1016 AT TIME STEP      3, STRESS PERIOD     57
 UBDSV06 SAVING              CHD IN MODEL TEST_TRANS       PACKAGE TEST_TRANS      CONNECTED TO MODEL TEST_TRANS       PACKAGE CHD              ON UNIT   1016 AT TIME STEP      3, STRESS PERIOD     57

 HEAD WILL BE SAVED ON UNIT 1017 AT END OF TIME STEP    3, STRESS PERIOD   57


  VOLUME BUDGET FOR ENTIRE MODEL AT END OF TIME STEP    3, STRESS PERIOD  57
  ---------------------------------------------------------------------------------------------------

     CUMULATIVE VOLUME      L**3       RATES FOR THIS TIME STEP      L**3/T          PACKAGE NAME    
     ------------------                 ------------------------                     ----------------

           IN:                                      IN:
           ---                                      ---
              STO-SS =          76.1302                STO-SS =       1.6051E-02     STORAGE         
              STO-SY =       48665.3641                STO-SY =          10.9364     STORAGE         
                 RCH =      269318.7522                   RCH =         143.0141     RCHA            
                 CHD =         400.5133                   CHD =           0.0000     CHD             

            TOTAL IN =      318460.7598              TOTAL IN =         153.9665

          OUT:                                     OUT:
          ----                                     ----
              STO-SS =          64.7039                STO-SS =       1.4373E-02     STORAGE         
              STO-SY =       41762.8760                STO-SY =           9.0039     STORAGE         
                 RCH =           0.0000                   RCH =           0.0000     RCHA            
                 CHD =      276635.2182                   CHD =         144.9461     CHD             

           TOTAL OUT =      318462.7982             TOTAL OUT =         153.9644

            IN - OUT =          -2.0383              IN - OUT =       2.0793E-03

 PERCENT DISCREPANCY =          -0.00     PERCENT DISCREPANCY =           0.00




         TIME SUMMARY AT END OF TIME STEP    3 IN STRESS PERIOD   57
                    SECONDS     MINUTES      HOURS       DAYS        YEARS
                    -----------------------------------------------------------
   TIME STEP LENGTH 2.59200E+05  4320.0      72.000      3.0000     8.21355E-03
 STRESS PERIOD TIME 7.77600E+05  12960.      216.00      9.0000     2.46407E-02
         TOTAL TIME 1.43424E+08 2.39040E+06  39840.      1660.0      4.5448    
 UBDSV1 SAVING           STO-SS ON UNIT   1016 AT TIME STEP      4, STRESS PERIOD     57
 UBDSV1 SAVING           STO-SY ON UNIT   1016 AT TIME STEP      4, STRESS PERIOD     57
 UBDSV1 SAVING     FLOW-JA-FACE ON UNIT   1016 AT TIME STEP      4, STRESS PERIOD     57
 UBDSV06 SAVING              RCH IN MODEL TEST_TRANS       PACKAGE TEST_TRANS      CONNECTED TO MODEL TEST_TRANS       PACKAGE RCHA             ON UNIT   1016 AT TIME STEP      4, STRESS PERIOD     57
 UBDSV06 SAVING              CHD IN MODEL TEST_TRANS       PACKAGE TEST_TRANS      CONNECTED TO MODEL TEST_TRANS       PACKAGE CHD              ON UNIT   1016 AT TIME STEP      4, STRESS PERIOD     57

 HEAD WILL BE SAVED ON UNIT 1017 AT END OF TIME STEP    4, STRESS PERIOD   57


  VOLUME BUDGET FOR ENTIRE MODEL AT END OF TIME STEP    4, STRESS PERIOD  57
  ---------------------------------------------------------------------------------------------------

     CUMULATIVE VOLUME      L**3       RATES FOR THIS TIME STEP      L**3/T          PACKAGE NAME    
     ------------------                 ------------------------                     ----------------

           IN:                                      IN:
           ---                                      ---
              STO-SS =          76.1675                STO-SS =       1.2444E-02     STORAGE         
              STO-SY =       48690.6829                STO-SY =           8.4396     STORAGE         
                 RCH =      269747.7945                   RCH =         143.0141     RCHA            
                 CHD =         400.5133                   CHD =           0.0000     CHD             

            TOTAL IN =      318915.1582              TOTAL IN =         151.4661

          OUT:                                     OUT:
          ----                                     ----
              STO-SS =          64.7444                STO-SS =       1.3493E-02     STORAGE         
              STO-SY =       41788.2218                STO-SY =           8.4486     STORAGE         
                 RCH =           0.0000                   RCH =           0.0000     RCHA            
                 CHD =      277064.2252                   CHD =         143.0023     CHD             

           TOTAL OUT =      318917.1914             TOTAL OUT =         151.4644

            IN - OUT =          -2.0332              IN - OUT =       1.7303E-03

 PERCENT DISCREPANCY =          -0.00     PERCENT DISCREPANCY =           0.00




         TIME SUMMARY AT END OF TIME STEP    4 IN STRESS PERIOD   57
                    SECONDS     MINUTES      HOURS       DAYS        YEARS
                    -----------------------------------------------------------
   TIME STEP LENGTH 2.59200E+05  4320.0      72.000      3.0000     8.21355E-03
 STRESS PERIOD TIME 1.03680E+06  17280.      288.00      12.000     3.28542E-02
         TOTAL TIME 1.43683E+08 2.39472E+06  39912.      1663.0      4.5530    
 UBDSV1 SAVING           STO-SS ON UNIT   1016 AT TIME STEP      5, STRESS PERIOD     57
 UBDSV1 SAVING           STO-SY ON UNIT   1016 AT TIME STEP      5, STRESS PERIOD     57
 UBDSV1 SAVING     FLOW-JA-FACE ON UNIT   1016 AT TIME STEP      5, STRESS PERIOD     57
 UBDSV06 SAVING              RCH IN MODEL TEST_TRANS       PACKAGE TEST_TRANS      CONNECTED TO MODEL TEST_TRANS       PACKAGE RCHA             ON UNIT   1016 AT TIME STEP      5, STRESS PERIOD     57
 UBDSV06 SAVING              CHD IN MODEL TEST_TRANS       PACKAGE TEST_TRANS      CONNECTED TO MODEL TEST_TRANS       PACKAGE CHD              ON UNIT   1016 AT TIME STEP      5, STRESS PERIOD     57

 HEAD WILL BE SAVED ON UNIT 1017 AT END OF TIME STEP    5, STRESS PERIOD   57


  VOLUME BUDGET FOR ENTIRE MODEL AT END OF TIME STEP    5, STRESS PERIOD  57
  ---------------------------------------------------------------------------------------------------

     CUMULATIVE VOLUME      L**3       RATES FOR THIS TIME STEP      L**3/T          PACKAGE NAME    
     ------------------                 ------------------------                     ----------------

           IN:                                      IN:
           ---                                      ---
              STO-SS =          76.1972                STO-SS =       9.9026E-03     STORAGE         
              STO-SY =       48710.7698                STO-SY =           6.6956     STORAGE         
                 RCH =      270176.8367                   RCH =         143.0141     RCHA            
                 CHD =         400.5133                   CHD =           0.0000     CHD             

            TOTAL IN =      319364.3171              TOTAL IN =         149.7196

          OUT:                                     OUT:
          ----                                     ----
              STO-SS =          64.7825                STO-SS =       1.2693E-02     STORAGE         
              STO-SY =       41812.0565                STO-SY =           7.9449     STORAGE         
                 RCH =           0.0000                   RCH =           0.0000     RCHA            
                 CHD =      277489.5044                   CHD =         141.7597     CHD             

           TOTAL OUT =      319366.3433             TOTAL OUT =         149.7173

            IN - OUT =          -2.0263              IN - OUT =       2.2924E-03

 PERCENT DISCREPANCY =          -0.00     PERCENT DISCREPANCY =           0.00




         TIME SUMMARY AT END OF TIME STEP    5 IN STRESS PERIOD   57
                    SECONDS     MINUTES      HOURS       DAYS        YEARS
                    -----------------------------------------------------------
   TIME STEP LENGTH 2.59200E+05  4320.0      72.000      3.0000     8.21355E-03
 STRESS PERIOD TIME 1.29600E+06  21600.      360.00      15.000     4.10678E-02
         TOTAL TIME 1.43942E+08 2.39904E+06  39984.      1666.0      4.5613    
 UBDSV1 SAVING           STO-SS ON UNIT   1016 AT TIME STEP      6, STRESS PERIOD     57
 UBDSV1 SAVING           STO-SY ON UNIT   1016 AT TIME STEP      6, STRESS PERIOD     57
 UBDSV1 SAVING     FLOW-JA-FACE ON UNIT   1016 AT TIME STEP      6, STRESS PERIOD     57
 UBDSV06 SAVING              RCH IN MODEL TEST_TRANS       PACKAGE TEST_TRANS      CONNECTED TO MODEL TEST_TRANS       PACKAGE RCHA             ON UNIT   1016 AT TIME STEP      6, STRESS PERIOD     57
 UBDSV06 SAVING              CHD IN MODEL TEST_TRANS       PACKAGE TEST_TRANS      CONNECTED TO MODEL TEST_TRANS       PACKAGE CHD              ON UNIT   1016 AT TIME STEP      6, STRESS PERIOD     57

 HEAD WILL BE SAVED ON UNIT 1017 AT END OF TIME STEP    6, STRESS PERIOD   57


  VOLUME BUDGET FOR ENTIRE MODEL AT END OF TIME STEP    6, STRESS PERIOD  57
  ---------------------------------------------------------------------------------------------------

     CUMULATIVE VOLUME      L**3       RATES FOR THIS TIME STEP      L**3/T          PACKAGE NAME    
     ------------------                 ------------------------                     ----------------

           IN:                                      IN:
           ---                                      ---
              STO-SS =          76.2211                STO-SS =       7.9776E-03     STORAGE         
              STO-SY =       48726.9204                STO-SY =           5.3835     STORAGE         
                 RCH =      270605.8790                   RCH =         143.0141     RCHA            
                 CHD =         400.5133                   CHD =           0.0000     CHD             

            TOTAL IN =      319809.5338              TOTAL IN =         148.4056

          OUT:                                     OUT:
          ----                                     ----
              STO-SS =          64.8184                STO-SS =       1.1955E-02     STORAGE         
              STO-SY =       41834.4979                STO-SY =           7.4805     STORAGE         
                 RCH =           0.0000                   RCH =           0.0000     RCHA            
                 CHD =      277912.1620                   CHD =         140.8859     CHD             

           TOTAL OUT =      319811.4783             TOTAL OUT =         148.3783

            IN - OUT =          -1.9445              IN - OUT =       2.7261E-02

 PERCENT DISCREPANCY =          -0.00     PERCENT DISCREPANCY =           0.02




         TIME SUMMARY AT END OF TIME STEP    6 IN STRESS PERIOD   57
                    SECONDS     MINUTES      HOURS       DAYS        YEARS
                    -----------------------------------------------------------
   TIME STEP LENGTH 2.59200E+05  4320.0      72.000      3.0000     8.21355E-03
 STRESS PERIOD TIME 1.55520E+06  25920.      432.00      18.000     4.92813E-02
         TOTAL TIME 1.44202E+08 2.40336E+06  40056.      1669.0      4.5695    
 UBDSV1 SAVING           STO-SS ON UNIT   1016 AT TIME STEP      7, STRESS PERIOD     57
 UBDSV1 SAVING           STO-SY ON UNIT   1016 AT TIME STEP      7, STRESS PERIOD     57
 UBDSV1 SAVING     FLOW-JA-FACE ON UNIT   1016 AT TIME STEP      7, STRESS PERIOD     57
 UBDSV06 SAVING              RCH IN MODEL TEST_TRANS       PACKAGE TEST_TRANS      CONNECTED TO MODEL TEST_TRANS       PACKAGE RCHA             ON UNIT   1016 AT TIME STEP      7, STRESS PERIOD     57
 UBDSV06 SAVING              CHD IN MODEL TEST_TRANS       PACKAGE TEST_TRANS      CONNECTED TO MODEL TEST_TRANS       PACKAGE CHD              ON UNIT   1016 AT TIME STEP      7, STRESS PERIOD     57

 HEAD WILL BE SAVED ON UNIT 1017 AT END OF TIME STEP    7, STRESS PERIOD   57


  VOLUME BUDGET FOR ENTIRE MODEL AT END OF TIME STEP    7, STRESS PERIOD  57
  ---------------------------------------------------------------------------------------------------

     CUMULATIVE VOLUME      L**3       RATES FOR THIS TIME STEP      L**3/T          PACKAGE NAME    
     ------------------                 ------------------------                     ----------------

           IN:                                      IN:
           ---                                      ---
              STO-SS =          76.2404                STO-SS =       6.4068E-03     STORAGE         
              STO-SY =       48739.8761                STO-SY =           4.3186     STORAGE         
                 RCH =      271034.9212                   RCH =         143.0141     RCHA            
                 CHD =         400.5133                   CHD =           0.0000     CHD             

            TOTAL IN =      320251.5510              TOTAL IN =         147.3391

          OUT:                                     OUT:
          ----                                     ----
              STO-SS =          64.8522                STO-SS =       1.1293E-02     STORAGE         
              STO-SY =       41855.6918                STO-SY =           7.0646     STORAGE         
                 RCH =           0.0000                   RCH =           0.0000     RCHA            
                 CHD =      278332.8905                   CHD =         140.2428     CHD             

           TOTAL OUT =      320253.4346             TOTAL OUT =         147.3188

            IN - OUT =          -1.8836              IN - OUT =       2.0305E-02

 PERCENT DISCREPANCY =          -0.00     PERCENT DISCREPANCY =           0.01




         TIME SUMMARY AT END OF TIME STEP    7 IN STRESS PERIOD   57
                    SECONDS     MINUTES      HOURS       DAYS        YEARS
                    -----------------------------------------------------------
   TIME STEP LENGTH 2.59200E+05  4320.0      72.000      3.0000     8.21355E-03
 STRESS PERIOD TIME 1.81440E+06  30240.      504.00      21.000     5.74949E-02
         TOTAL TIME 1.44461E+08 2.40768E+06  40128.      1672.0      4.5777    
 UBDSV1 SAVING           STO-SS ON UNIT   1016 AT TIME STEP      8, STRESS PERIOD     57
 UBDSV1 SAVING           STO-SY ON UNIT   1016 AT TIME STEP      8, STRESS PERIOD     57
 UBDSV1 SAVING     FLOW-JA-FACE ON UNIT   1016 AT TIME STEP      8, STRESS PERIOD     57
 UBDSV06 SAVING              RCH IN MODEL TEST_TRANS       PACKAGE TEST_TRANS      CONNECTED TO MODEL TEST_TRANS       PACKAGE RCHA             ON UNIT   1016 AT TIME STEP      8, STRESS PERIOD     57
 UBDSV06 SAVING              CHD IN MODEL TEST_TRANS       PACKAGE TEST_TRANS      CONNECTED TO MODEL TEST_TRANS       PACKAGE CHD              ON UNIT   1016 AT TIME STEP      8, STRESS PERIOD     57

 HEAD WILL BE SAVED ON UNIT 1017 AT END OF TIME STEP    8, STRESS PERIOD   57


  VOLUME BUDGET FOR ENTIRE MODEL AT END OF TIME STEP    8, STRESS PERIOD  57
  ---------------------------------------------------------------------------------------------------

     CUMULATIVE VOLUME      L**3       RATES FOR THIS TIME STEP      L**3/T          PACKAGE NAME    
     ------------------                 ------------------------                     ----------------

           IN:                                      IN:
           ---                                      ---
              STO-SS =          76.2557                STO-SS =       5.1274E-03     STORAGE         
              STO-SY =       48750.2394                STO-SY =           3.4544     STORAGE         
                 RCH =      271463.9634                   RCH =         143.0141     RCHA            
                 CHD =         400.5133                   CHD =           0.0000     CHD             

            TOTAL IN =      320690.9720              TOTAL IN =         146.4736

          OUT:                                     OUT:
          ----                                     ----
              STO-SS =          64.8843                STO-SS =       1.0702E-02     STORAGE         
              STO-SY =       41875.7727                STO-SY =           6.6936     STORAGE         
                 RCH =           0.0000                   RCH =           0.0000     RCHA            
                 CHD =      278752.1522                   CHD =         139.7539     CHD             

           TOTAL OUT =      320692.8093             TOTAL OUT =         146.4582

            IN - OUT =          -1.8373              IN - OUT =       1.5420E-02

 PERCENT DISCREPANCY =          -0.00     PERCENT DISCREPANCY =           0.01




         TIME SUMMARY AT END OF TIME STEP    8 IN STRESS PERIOD   57
                    SECONDS     MINUTES      HOURS       DAYS        YEARS
                    -----------------------------------------------------------
   TIME STEP LENGTH 2.59200E+05  4320.0      72.000      3.0000     8.21355E-03
 STRESS PERIOD TIME 2.07360E+06  34560.      576.00      24.000     6.57084E-02
         TOTAL TIME 1.44720E+08 2.41200E+06  40200.      1675.0      4.5859    
 UBDSV1 SAVING           STO-SS ON UNIT   1016 AT TIME STEP      9, STRESS PERIOD     57
 UBDSV1 SAVING           STO-SY ON UNIT   1016 AT TIME STEP      9, STRESS PERIOD     57
 UBDSV1 SAVING     FLOW-JA-FACE ON UNIT   1016 AT TIME STEP      9, STRESS PERIOD     57
 UBDSV06 SAVING              RCH IN MODEL TEST_TRANS       PACKAGE TEST_TRANS      CONNECTED TO MODEL TEST_TRANS       PACKAGE RCHA             ON UNIT   1016 AT TIME STEP      9, STRESS PERIOD     57
 UBDSV06 SAVING              CHD IN MODEL TEST_TRANS       PACKAGE TEST_TRANS      CONNECTED TO MODEL TEST_TRANS       PACKAGE CHD              ON UNIT   1016 AT TIME STEP      9, STRESS PERIOD     57

 HEAD WILL BE SAVED ON UNIT 1017 AT END OF TIME STEP    9, STRESS PERIOD   57


  VOLUME BUDGET FOR ENTIRE MODEL AT END OF TIME STEP    9, STRESS PERIOD  57
  ---------------------------------------------------------------------------------------------------

     CUMULATIVE VOLUME      L**3       RATES FOR THIS TIME STEP      L**3/T          PACKAGE NAME    
     ------------------                 ------------------------                     ----------------

           IN:                                      IN:
           ---                                      ---
              STO-SS =          76.2680                STO-SS =       4.0699E-03     STORAGE         
              STO-SY =       48758.4656                STO-SY =           2.7421     STORAGE         
                 RCH =      271893.0057                   RCH =         143.0141     RCHA            
                 CHD =         400.5133                   CHD =           0.0000     CHD             

            TOTAL IN =      321128.2526              TOTAL IN =         145.7602

          OUT:                                     OUT:
          ----                                     ----
              STO-SS =          64.9149                STO-SS =       1.0176E-02     STORAGE         
              STO-SY =       41894.8642                STO-SY =           6.3638     STORAGE         
                 RCH =           0.0000                   RCH =           0.0000     RCHA            
                 CHD =      279170.2754                   CHD =         139.3744     CHD             

           TOTAL OUT =      321130.0545             TOTAL OUT =         145.7484

            IN - OUT =          -1.8018              IN - OUT =       1.1826E-02

 PERCENT DISCREPANCY =          -0.00     PERCENT DISCREPANCY =           0.01




         TIME SUMMARY AT END OF TIME STEP    9 IN STRESS PERIOD   57
                    SECONDS     MINUTES      HOURS       DAYS        YEARS
                    -----------------------------------------------------------
   TIME STEP LENGTH 2.59200E+05  4320.0      72.000      3.0000     8.21355E-03
 STRESS PERIOD TIME 2.33280E+06  38880.      648.00      27.000     7.39220E-02
         TOTAL TIME 1.44979E+08 2.41632E+06  40272.      1678.0      4.5941    
 UBDSV1 SAVING           STO-SS ON UNIT   1016 AT TIME STEP     10, STRESS PERIOD     57
 UBDSV1 SAVING           STO-SY ON UNIT   1016 AT TIME STEP     10, STRESS PERIOD     57
 UBDSV1 SAVING     FLOW-JA-FACE ON UNIT   1016 AT TIME STEP     10, STRESS PERIOD     57
 UBDSV06 SAVING              RCH IN MODEL TEST_TRANS       PACKAGE TEST_TRANS      CONNECTED TO MODEL TEST_TRANS       PACKAGE RCHA             ON UNIT   1016 AT TIME STEP     10, STRESS PERIOD     57
 UBDSV06 SAVING              CHD IN MODEL TEST_TRANS       PACKAGE TEST_TRANS      CONNECTED TO MODEL TEST_TRANS       PACKAGE CHD              ON UNIT   1016 AT TIME STEP     10, STRESS PERIOD     57

 HEAD WILL BE SAVED ON UNIT 1017 AT END OF TIME STEP   10, STRESS PERIOD   57


  VOLUME BUDGET FOR ENTIRE MODEL AT END OF TIME STEP   10, STRESS PERIOD  57
  ---------------------------------------------------------------------------------------------------

     CUMULATIVE VOLUME      L**3       RATES FOR THIS TIME STEP      L**3/T          PACKAGE NAME    
     ------------------                 ------------------------                     ----------------

           IN:                                      IN:
           ---                                      ---
              STO-SS =          76.2776                STO-SS =       3.2030E-03     STORAGE         
              STO-SY =       48764.9419                STO-SY =           2.1588     STORAGE         
                 RCH =      272322.0479                   RCH =         143.0141     RCHA            
                 CHD =         400.5133                   CHD =           0.0000     CHD             

            TOTAL IN =      321563.7808              TOTAL IN =         145.1760

          OUT:                                     OUT:
          ----                                     ----
              STO-SS =          64.9440                STO-SS =       9.7235E-03     STORAGE         
              STO-SY =       41913.1065                STO-SY =           6.0808     STORAGE         
                 RCH =           0.0000                   RCH =           0.0000     RCHA            
                 CHD =      279587.5048                   CHD =         139.0765     CHD             

           TOTAL OUT =      321565.5553             TOTAL OUT =         145.1670

            IN - OUT =          -1.7746              IN - OUT =       9.0857E-03

 PERCENT DISCREPANCY =          -0.00     PERCENT DISCREPANCY =           0.01




         TIME SUMMARY AT END OF TIME STEP   10 IN STRESS PERIOD   57
                    SECONDS     MINUTES      HOURS       DAYS        YEARS
                    -----------------------------------------------------------
   TIME STEP LENGTH 2.59200E+05  4320.0      72.000      3.0000     8.21355E-03
 STRESS PERIOD TIME 2.59200E+06  43200.      720.00      30.000     8.21355E-02
         TOTAL TIME 1.45238E+08 2.42064E+06  40344.      1681.0      4.6023    

 OUTPUT CONTROL FOR STRESS PERIOD 58 IS REPEATED USING SETTINGS FROM A PREVIOUS STRESS PERIOD.


 STRESS PERIOD 58 IS TRANSIENT


                 RECHARGE =  0.2191780E-02
 UBDSV1 SAVING           STO-SS ON UNIT   1016 AT TIME STEP      1, STRESS PERIOD     58
 UBDSV1 SAVING           STO-SY ON UNIT   1016 AT TIME STEP      1, STRESS PERIOD     58
 UBDSV1 SAVING     FLOW-JA-FACE ON UNIT   1016 AT TIME STEP      1, STRESS PERIOD     58
 UBDSV06 SAVING              RCH IN MODEL TEST_TRANS       PACKAGE TEST_TRANS      CONNECTED TO MODEL TEST_TRANS       PACKAGE RCHA             ON UNIT   1016 AT TIME STEP      1, STRESS PERIOD     58
 UBDSV06 SAVING              CHD IN MODEL TEST_TRANS       PACKAGE TEST_TRANS      CONNECTED TO MODEL TEST_TRANS       PACKAGE CHD              ON UNIT   1016 AT TIME STEP      1, STRESS PERIOD     58

 HEAD WILL BE SAVED ON UNIT 1017 AT END OF TIME STEP    1, STRESS PERIOD   58


  VOLUME BUDGET FOR ENTIRE MODEL AT END OF TIME STEP    1, STRESS PERIOD  58
  ---------------------------------------------------------------------------------------------------

     CUMULATIVE VOLUME      L**3       RATES FOR THIS TIME STEP      L**3/T          PACKAGE NAME    
     ------------------                 ------------------------                     ----------------

           IN:                                      IN:
           ---                                      ---
              STO-SS =          76.3896                STO-SS =       3.7329E-02     STORAGE         
              STO-SY =       48843.9095                STO-SY =          26.3225     STORAGE         
                 RCH =      272894.1025                   RCH =         190.6849     RCHA            
                 CHD =         400.5133                   CHD =           0.0000     CHD             

            TOTAL IN =      322214.9149              TOTAL IN =         217.0447

          OUT:                                     OUT:
          ----                                     ----
              STO-SS =          65.1403                STO-SS =       6.5416E-02     STORAGE         
              STO-SY =       42037.3145                STO-SY =          41.4027     STORAGE         
                 RCH =           0.0000                   RCH =           0.0000     RCHA            
                 CHD =      280114.2908                   CHD =         175.5953     CHD             

           TOTAL OUT =      322216.7456             TOTAL OUT =         217.0634

            IN - OUT =          -1.8307              IN - OUT =      -1.8721E-02

 PERCENT DISCREPANCY =          -0.00     PERCENT DISCREPANCY =          -0.01




         TIME SUMMARY AT END OF TIME STEP    1 IN STRESS PERIOD   58
                    SECONDS     MINUTES      HOURS       DAYS        YEARS
                    -----------------------------------------------------------
   TIME STEP LENGTH 2.59200E+05  4320.0      72.000      3.0000     8.21355E-03
 STRESS PERIOD TIME 2.59200E+05  4320.0      72.000      3.0000     8.21355E-03
         TOTAL TIME 1.45498E+08 2.42496E+06  40416.      1684.0      4.6105    
 UBDSV1 SAVING           STO-SS ON UNIT   1016 AT TIME STEP      2, STRESS PERIOD     58
 UBDSV1 SAVING           STO-SY ON UNIT   1016 AT TIME STEP      2, STRESS PERIOD     58
 UBDSV1 SAVING     FLOW-JA-FACE ON UNIT   1016 AT TIME STEP      2, STRESS PERIOD     58
 UBDSV06 SAVING              RCH IN MODEL TEST_TRANS       PACKAGE TEST_TRANS      CONNECTED TO MODEL TEST_TRANS       PACKAGE RCHA             ON UNIT   1016 AT TIME STEP      2, STRESS PERIOD     58
 UBDSV06 SAVING              CHD IN MODEL TEST_TRANS       PACKAGE TEST_TRANS      CONNECTED TO MODEL TEST_TRANS       PACKAGE CHD              ON UNIT   1016 AT TIME STEP      2, STRESS PERIOD     58

 HEAD WILL BE SAVED ON UNIT 1017 AT END OF TIME STEP    2, STRESS PERIOD   58


  VOLUME BUDGET FOR ENTIRE MODEL AT END OF TIME STEP    2, STRESS PERIOD  58
  ---------------------------------------------------------------------------------------------------

     CUMULATIVE VOLUME      L**3       RATES FOR THIS TIME STEP      L**3/T          PACKAGE NAME    
     ------------------                 ------------------------                     ----------------

           IN:                                      IN:
           ---                                      ---
              STO-SS =          76.4422                STO-SS =       1.7560E-02     STORAGE         
              STO-SY =       48880.7940                STO-SY =          12.2948     STORAGE         
                 RCH =      273466.1571                   RCH =         190.6849     RCHA            
                 CHD =         400.5133                   CHD =           0.0000     CHD             

            TOTAL IN =      322823.9066              TOTAL IN =         202.9972

          OUT:                                     OUT:
          ----                                     ----
              STO-SS =          65.3248                STO-SS =       6.1497E-02     STORAGE         
              STO-SY =       42153.7679                STO-SY =          38.8178     STORAGE         
                 RCH =           0.0000                   RCH =           0.0000     RCHA            
                 CHD =      280606.6553                   CHD =         164.1215     CHD             

           TOTAL OUT =      322825.7480             TOTAL OUT =         203.0008

            IN - OUT =          -1.8413              IN - OUT =      -3.5299E-03

 PERCENT DISCREPANCY =          -0.00     PERCENT DISCREPANCY =          -0.00




         TIME SUMMARY AT END OF TIME STEP    2 IN STRESS PERIOD   58
                    SECONDS     MINUTES      HOURS       DAYS        YEARS
                    -----------------------------------------------------------
   TIME STEP LENGTH 2.59200E+05  4320.0      72.000      3.0000     8.21355E-03
 STRESS PERIOD TIME 5.18400E+05  8640.0      144.00      6.0000     1.64271E-02
         TOTAL TIME 1.45757E+08 2.42928E+06  40488.      1687.0      4.6188    
 UBDSV1 SAVING           STO-SS ON UNIT   1016 AT TIME STEP      3, STRESS PERIOD     58
 UBDSV1 SAVING           STO-SY ON UNIT   1016 AT TIME STEP      3, STRESS PERIOD     58
 UBDSV1 SAVING     FLOW-JA-FACE ON UNIT   1016 AT TIME STEP      3, STRESS PERIOD     58
 UBDSV06 SAVING              RCH IN MODEL TEST_TRANS       PACKAGE TEST_TRANS      CONNECTED TO MODEL TEST_TRANS       PACKAGE RCHA             ON UNIT   1016 AT TIME STEP      3, STRESS PERIOD     58
 UBDSV06 SAVING              CHD IN MODEL TEST_TRANS       PACKAGE TEST_TRANS      CONNECTED TO MODEL TEST_TRANS       PACKAGE CHD              ON UNIT   1016 AT TIME STEP      3, STRESS PERIOD     58

 HEAD WILL BE SAVED ON UNIT 1017 AT END OF TIME STEP    3, STRESS PERIOD   58


  VOLUME BUDGET FOR ENTIRE MODEL AT END OF TIME STEP    3, STRESS PERIOD  58
  ---------------------------------------------------------------------------------------------------

     CUMULATIVE VOLUME      L**3       RATES FOR THIS TIME STEP      L**3/T          PACKAGE NAME    
     ------------------                 ------------------------                     ----------------

           IN:                                      IN:
           ---                                      ---
              STO-SS =          76.4701                STO-SS =       9.2953E-03     STORAGE         
              STO-SY =       48900.2274                STO-SY =           6.4778     STORAGE         
                 RCH =      274038.2117                   RCH =         190.6849     RCHA            
                 CHD =         400.5133                   CHD =           0.0000     CHD             

            TOTAL IN =      323415.4226              TOTAL IN =         197.1720

          OUT:                                     OUT:
          ----                                     ----
              STO-SS =          65.5012                STO-SS =       5.8810E-02     STORAGE         
              STO-SY =       42264.9570                STO-SY =          37.0630     STORAGE         
                 RCH =           0.0000                   RCH =           0.0000     RCHA            
                 CHD =      281086.8068                   CHD =         160.0505     CHD             

           TOTAL OUT =      323417.2650             TOTAL OUT =         197.1723

            IN - OUT =          -1.8425              IN - OUT =      -3.7319E-04

 PERCENT DISCREPANCY =          -0.00     PERCENT DISCREPANCY =          -0.00




         TIME SUMMARY AT END OF TIME STEP    3 IN STRESS PERIOD   58
                    SECONDS     MINUTES      HOURS       DAYS        YEARS
                    -----------------------------------------------------------
   TIME STEP LENGTH 2.59200E+05  4320.0      72.000      3.0000     8.21355E-03
 STRESS PERIOD TIME 7.77600E+05  12960.      216.00      9.0000     2.46407E-02
         TOTAL TIME 1.46016E+08 2.43360E+06  40560.      1690.0      4.6270    
 UBDSV1 SAVING           STO-SS ON UNIT   1016 AT TIME STEP      4, STRESS PERIOD     58
 UBDSV1 SAVING           STO-SY ON UNIT   1016 AT TIME STEP      4, STRESS PERIOD     58
 UBDSV1 SAVING     FLOW-JA-FACE ON UNIT   1016 AT TIME STEP      4, STRESS PERIOD     58
 UBDSV06 SAVING              RCH IN MODEL TEST_TRANS       PACKAGE TEST_TRANS      CONNECTED TO MODEL TEST_TRANS       PACKAGE RCHA             ON UNIT   1016 AT TIME STEP      4, STRESS PERIOD     58
 UBDSV06 SAVING              CHD IN MODEL TEST_TRANS       PACKAGE TEST_TRANS      CONNECTED TO MODEL TEST_TRANS       PACKAGE CHD              ON UNIT   1016 AT TIME STEP      4, STRESS PERIOD     58

 HEAD WILL BE SAVED ON UNIT 1017 AT END OF TIME STEP    4, STRESS PERIOD   58


  VOLUME BUDGET FOR ENTIRE MODEL AT END OF TIME STEP    4, STRESS PERIOD  58
  ---------------------------------------------------------------------------------------------------

     CUMULATIVE VOLUME      L**3       RATES FOR THIS TIME STEP      L**3/T          PACKAGE NAME    
     ------------------                 ------------------------                     ----------------

           IN:                                      IN:
           ---                                      ---
              STO-SS =          76.4848                STO-SS =       4.8780E-03     STORAGE         
              STO-SY =       48910.4109                STO-SY =           3.3945     STORAGE         
                 RCH =      274610.2662                   RCH =         190.6849     RCHA            
                 CHD =         400.5133                   CHD =           0.0000     CHD             

            TOTAL IN =      323997.6752              TOTAL IN =         194.0842

          OUT:                                     OUT:
          ----                                     ----
              STO-SS =          65.6716                STO-SS =       5.6813E-02     STORAGE         
              STO-SY =       42372.2618                STO-SY =          35.7683     STORAGE         
                 RCH =           0.0000                   RCH =           0.0000     RCHA            
                 CHD =      281561.5860                   CHD =         158.2598     CHD             

           TOTAL OUT =      323999.5195             TOTAL OUT =         194.0848

            IN - OUT =          -1.8443              IN - OUT =      -6.0550E-04

 PERCENT DISCREPANCY =          -0.00     PERCENT DISCREPANCY =          -0.00




         TIME SUMMARY AT END OF TIME STEP    4 IN STRESS PERIOD   58
                    SECONDS     MINUTES      HOURS       DAYS        YEARS
                    -----------------------------------------------------------
   TIME STEP LENGTH 2.59200E+05  4320.0      72.000      3.0000     8.21355E-03
 STRESS PERIOD TIME 1.03680E+06  17280.      288.00      12.000     3.28542E-02
         TOTAL TIME 1.46275E+08 2.43792E+06  40632.      1693.0      4.6352    
 UBDSV1 SAVING           STO-SS ON UNIT   1016 AT TIME STEP      5, STRESS PERIOD     58
 UBDSV1 SAVING           STO-SY ON UNIT   1016 AT TIME STEP      5, STRESS PERIOD     58
 UBDSV1 SAVING     FLOW-JA-FACE ON UNIT   1016 AT TIME STEP      5, STRESS PERIOD     58
 UBDSV06 SAVING              RCH IN MODEL TEST_TRANS       PACKAGE TEST_TRANS      CONNECTED TO MODEL TEST_TRANS       PACKAGE RCHA             ON UNIT   1016 AT TIME STEP      5, STRESS PERIOD     58
 UBDSV06 SAVING              CHD IN MODEL TEST_TRANS       PACKAGE TEST_TRANS      CONNECTED TO MODEL TEST_TRANS       PACKAGE CHD              ON UNIT   1016 AT TIME STEP      5, STRESS PERIOD     58

 HEAD WILL BE SAVED ON UNIT 1017 AT END OF TIME STEP    5, STRESS PERIOD   58


  VOLUME BUDGET FOR ENTIRE MODEL AT END OF TIME STEP    5, STRESS PERIOD  58
  ---------------------------------------------------------------------------------------------------

     CUMULATIVE VOLUME      L**3       RATES FOR THIS TIME STEP      L**3/T          PACKAGE NAME    
     ------------------                 ------------------------                     ----------------

           IN:                                      IN:
           ---                                      ---
              STO-SS =          76.4916                STO-SS =       2.2918E-03     STORAGE         
              STO-SY =       48915.2033                STO-SY =           1.5975     STORAGE         
                 RCH =      275182.3208                   RCH =         190.6849     RCHA            
                 CHD =         400.5133                   CHD =           0.0000     CHD             

            TOTAL IN =      324574.5291              TOTAL IN =         192.2846

          OUT:                                     OUT:
          ----                                     ----
              STO-SS =          65.8377                STO-SS =       5.5350E-02     STORAGE         
              STO-SY =       42476.7420                STO-SY =          34.8267     STORAGE         
                 RCH =           0.0000                   RCH =           0.0000     RCHA            
                 CHD =      282033.7964                   CHD =         157.4035     CHD             

           TOTAL OUT =      324576.3761             TOTAL OUT =         192.2855

            IN - OUT =          -1.8469              IN - OUT =      -8.9290E-04

 PERCENT DISCREPANCY =          -0.00     PERCENT DISCREPANCY =          -0.00




         TIME SUMMARY AT END OF TIME STEP    5 IN STRESS PERIOD   58
                    SECONDS     MINUTES      HOURS       DAYS        YEARS
                    -----------------------------------------------------------
   TIME STEP LENGTH 2.59200E+05  4320.0      72.000      3.0000     8.21355E-03
 STRESS PERIOD TIME 1.29600E+06  21600.      360.00      15.000     4.10678E-02
         TOTAL TIME 1.46534E+08 2.44224E+06  40704.      1696.0      4.6434    
 UBDSV1 SAVING           STO-SS ON UNIT   1016 AT TIME STEP      6, STRESS PERIOD     58
 UBDSV1 SAVING           STO-SY ON UNIT   1016 AT TIME STEP      6, STRESS PERIOD     58
 UBDSV1 SAVING     FLOW-JA-FACE ON UNIT   1016 AT TIME STEP      6, STRESS PERIOD     58
 UBDSV06 SAVING              RCH IN MODEL TEST_TRANS       PACKAGE TEST_TRANS      CONNECTED TO MODEL TEST_TRANS       PACKAGE RCHA             ON UNIT   1016 AT TIME STEP      6, STRESS PERIOD     58
 UBDSV06 SAVING              CHD IN MODEL TEST_TRANS       PACKAGE TEST_TRANS      CONNECTED TO MODEL TEST_TRANS       PACKAGE CHD              ON UNIT   1016 AT TIME STEP      6, STRESS PERIOD     58

 HEAD WILL BE SAVED ON UNIT 1017 AT END OF TIME STEP    6, STRESS PERIOD   58


  VOLUME BUDGET FOR ENTIRE MODEL AT END OF TIME STEP    6, STRESS PERIOD  58
  ---------------------------------------------------------------------------------------------------

     CUMULATIVE VOLUME      L**3       RATES FOR THIS TIME STEP      L**3/T          PACKAGE NAME    
     ------------------                 ------------------------                     ----------------

           IN:                                      IN:
           ---                                      ---
              STO-SS =          76.4941                STO-SS =       8.3834E-04     STORAGE         
              STO-SY =       48916.9653                STO-SY =           0.5873     STORAGE         
                 RCH =      275754.3754                   RCH =         190.6849     RCHA            
                 CHD =         400.5133                   CHD =           0.0000     CHD             

            TOTAL IN =      325148.3481              TOTAL IN =         191.2730

          OUT:                                     OUT:
          ----                                     ----
              STO-SS =          66.0008                STO-SS =       5.4380E-02     STORAGE         
              STO-SY =       42579.3771                STO-SY =          34.2117     STORAGE         
                 RCH =           0.0000                   RCH =           0.0000     RCHA            
                 CHD =      282504.8202                   CHD =         157.0079     CHD             

           TOTAL OUT =      325150.1981             TOTAL OUT =         191.2740

            IN - OUT =          -1.8500              IN - OUT =      -1.0016E-03

 PERCENT DISCREPANCY =          -0.00     PERCENT DISCREPANCY =          -0.00




         TIME SUMMARY AT END OF TIME STEP    6 IN STRESS PERIOD   58
                    SECONDS     MINUTES      HOURS       DAYS        YEARS
                    -----------------------------------------------------------
   TIME STEP LENGTH 2.59200E+05  4320.0      72.000      3.0000     8.21355E-03
 STRESS PERIOD TIME 1.55520E+06  25920.      432.00      18.000     4.92813E-02
         TOTAL TIME 1.46794E+08 2.44656E+06  40776.      1699.0      4.6516    
 UBDSV1 SAVING           STO-SS ON UNIT   1016 AT TIME STEP      7, STRESS PERIOD     58
 UBDSV1 SAVING           STO-SY ON UNIT   1016 AT TIME STEP      7, STRESS PERIOD     58
 UBDSV1 SAVING     FLOW-JA-FACE ON UNIT   1016 AT TIME STEP      7, STRESS PERIOD     58
 UBDSV06 SAVING              RCH IN MODEL TEST_TRANS       PACKAGE TEST_TRANS      CONNECTED TO MODEL TEST_TRANS       PACKAGE RCHA             ON UNIT   1016 AT TIME STEP      7, STRESS PERIOD     58
 UBDSV06 SAVING              CHD IN MODEL TEST_TRANS       PACKAGE TEST_TRANS      CONNECTED TO MODEL TEST_TRANS       PACKAGE CHD              ON UNIT   1016 AT TIME STEP      7, STRESS PERIOD     58

 HEAD WILL BE SAVED ON UNIT 1017 AT END OF TIME STEP    7, STRESS PERIOD   58


  VOLUME BUDGET FOR ENTIRE MODEL AT END OF TIME STEP    7, STRESS PERIOD  58
  ---------------------------------------------------------------------------------------------------

     CUMULATIVE VOLUME      L**3       RATES FOR THIS TIME STEP      L**3/T          PACKAGE NAME    
     ------------------                 ------------------------                     ----------------

           IN:                                      IN:
           ---                                      ---
              STO-SS =          76.4946                STO-SS =       1.4247E-04     STORAGE         
              STO-SY =       48917.2674                STO-SY =           0.1007     STORAGE         
                 RCH =      276326.4300                   RCH =         190.6849     RCHA            
                 CHD =         400.5133                   CHD =           0.0000     CHD             

            TOTAL IN =      325720.7053              TOTAL IN =         190.7857

          OUT:                                     OUT:
          ----                                     ----
              STO-SS =          66.1622                STO-SS =       5.3790E-02     STORAGE         
              STO-SY =       42680.9314                STO-SY =          33.8514     STORAGE         
                 RCH =           0.0000                   RCH =           0.0000     RCHA            
                 CHD =      282975.4810                   CHD =         156.8869     CHD             

           TOTAL OUT =      325722.5746             TOTAL OUT =         190.7922

            IN - OUT =          -1.8693              IN - OUT =      -6.4340E-03

 PERCENT DISCREPANCY =          -0.00     PERCENT DISCREPANCY =          -0.00




         TIME SUMMARY AT END OF TIME STEP    7 IN STRESS PERIOD   58
                    SECONDS     MINUTES      HOURS       DAYS        YEARS
                    -----------------------------------------------------------
   TIME STEP LENGTH 2.59200E+05  4320.0      72.000      3.0000     8.21355E-03
 STRESS PERIOD TIME 1.81440E+06  30240.      504.00      21.000     5.74949E-02
         TOTAL TIME 1.47053E+08 2.45088E+06  40848.      1702.0      4.6598    
 UBDSV1 SAVING           STO-SS ON UNIT   1016 AT TIME STEP      8, STRESS PERIOD     58
 UBDSV1 SAVING           STO-SY ON UNIT   1016 AT TIME STEP      8, STRESS PERIOD     58
 UBDSV1 SAVING     FLOW-JA-FACE ON UNIT   1016 AT TIME STEP      8, STRESS PERIOD     58
 UBDSV06 SAVING              RCH IN MODEL TEST_TRANS       PACKAGE TEST_TRANS      CONNECTED TO MODEL TEST_TRANS       PACKAGE RCHA             ON UNIT   1016 AT TIME STEP      8, STRESS PERIOD     58
 UBDSV06 SAVING              CHD IN MODEL TEST_TRANS       PACKAGE TEST_TRANS      CONNECTED TO MODEL TEST_TRANS       PACKAGE CHD              ON UNIT   1016 AT TIME STEP      8, STRESS PERIOD     58

 HEAD WILL BE SAVED ON UNIT 1017 AT END OF TIME STEP    8, STRESS PERIOD   58


  VOLUME BUDGET FOR ENTIRE MODEL AT END OF TIME STEP    8, STRESS PERIOD  58
  ---------------------------------------------------------------------------------------------------

     CUMULATIVE VOLUME      L**3       RATES FOR THIS TIME STEP      L**3/T          PACKAGE NAME    
     ------------------                 ------------------------                     ----------------

           IN:                                      IN:
           ---                                      ---
              STO-SS =          76.4946                STO-SS =           0.0000     STORAGE         
              STO-SY =       48917.2674                STO-SY =           0.0000     STORAGE         
                 RCH =      276898.4846                   RCH =         190.6849     RCHA            
                 CHD =         400.5133                   CHD =           0.0000     CHD             

            TOTAL IN =      326292.7599              TOTAL IN =         190.6849

          OUT:                                     OUT:
          ----                                     ----
              STO-SS =          66.3228                STO-SS =       5.3518E-02     STORAGE         
              STO-SY =       42782.0574                STO-SY =          33.7087     STORAGE         
                 RCH =           0.0000                   RCH =           0.0000     RCHA            
                 CHD =      283446.2818                   CHD =         156.9336     CHD             

           TOTAL OUT =      326294.6620             TOTAL OUT =         190.6958

            IN - OUT =          -1.9021              IN - OUT =      -1.0954E-02

 PERCENT DISCREPANCY =          -0.00     PERCENT DISCREPANCY =          -0.01




         TIME SUMMARY AT END OF TIME STEP    8 IN STRESS PERIOD   58
                    SECONDS     MINUTES      HOURS       DAYS        YEARS
                    -----------------------------------------------------------
   TIME STEP LENGTH 2.59200E+05  4320.0      72.000      3.0000     8.21355E-03
 STRESS PERIOD TIME 2.07360E+06  34560.      576.00      24.000     6.57084E-02
         TOTAL TIME 1.47312E+08 2.45520E+06  40920.      1705.0      4.6680    
 UBDSV1 SAVING           STO-SS ON UNIT   1016 AT TIME STEP      9, STRESS PERIOD     58
 UBDSV1 SAVING           STO-SY ON UNIT   1016 AT TIME STEP      9, STRESS PERIOD     58
 UBDSV1 SAVING     FLOW-JA-FACE ON UNIT   1016 AT TIME STEP      9, STRESS PERIOD     58
 UBDSV06 SAVING              RCH IN MODEL TEST_TRANS       PACKAGE TEST_TRANS      CONNECTED TO MODEL TEST_TRANS       PACKAGE RCHA             ON UNIT   1016 AT TIME STEP      9, STRESS PERIOD     58
 UBDSV06 SAVING              CHD IN MODEL TEST_TRANS       PACKAGE TEST_TRANS      CONNECTED TO MODEL TEST_TRANS       PACKAGE CHD              ON UNIT   1016 AT TIME STEP      9, STRESS PERIOD     58

 HEAD WILL BE SAVED ON UNIT 1017 AT END OF TIME STEP    9, STRESS PERIOD   58


  VOLUME BUDGET FOR ENTIRE MODEL AT END OF TIME STEP    9, STRESS PERIOD  58
  ---------------------------------------------------------------------------------------------------

     CUMULATIVE VOLUME      L**3       RATES FOR THIS TIME STEP      L**3/T          PACKAGE NAME    
     ------------------                 ------------------------                     ----------------

           IN:                                      IN:
           ---                                      ---
              STO-SS =          76.4946                STO-SS =           0.0000     STORAGE         
              STO-SY =       48917.2674                STO-SY =           0.0000     STORAGE         
                 RCH =      277470.5391                   RCH =         190.6849     RCHA            
                 CHD =         400.5133                   CHD =           0.0000     CHD             

            TOTAL IN =      326864.8145              TOTAL IN =         190.6849

          OUT:                                     OUT:
          ----                                     ----
              STO-SS =          66.4825                STO-SS =       5.3231E-02     STORAGE         
              STO-SY =       42882.7211                STO-SY =          33.5546     STORAGE         
                 RCH =           0.0000                   RCH =           0.0000     RCHA            
                 CHD =      283917.5530                   CHD =         157.0904     CHD             

           TOTAL OUT =      326866.7566             TOTAL OUT =         190.6982

            IN - OUT =          -1.9421              IN - OUT =      -1.3334E-02

 PERCENT DISCREPANCY =          -0.00     PERCENT DISCREPANCY =          -0.01




         TIME SUMMARY AT END OF TIME STEP    9 IN STRESS PERIOD   58
                    SECONDS     MINUTES      HOURS       DAYS        YEARS
                    -----------------------------------------------------------
   TIME STEP LENGTH 2.59200E+05  4320.0      72.000      3.0000     8.21355E-03
 STRESS PERIOD TIME 2.33280E+06  38880.      648.00      27.000     7.39220E-02
         TOTAL TIME 1.47571E+08 2.45952E+06  40992.      1708.0      4.6762    
 UBDSV1 SAVING           STO-SS ON UNIT   1016 AT TIME STEP     10, STRESS PERIOD     58
 UBDSV1 SAVING           STO-SY ON UNIT   1016 AT TIME STEP     10, STRESS PERIOD     58
 UBDSV1 SAVING     FLOW-JA-FACE ON UNIT   1016 AT TIME STEP     10, STRESS PERIOD     58
 UBDSV06 SAVING              RCH IN MODEL TEST_TRANS       PACKAGE TEST_TRANS      CONNECTED TO MODEL TEST_TRANS       PACKAGE RCHA             ON UNIT   1016 AT TIME STEP     10, STRESS PERIOD     58
 UBDSV06 SAVING              CHD IN MODEL TEST_TRANS       PACKAGE TEST_TRANS      CONNECTED TO MODEL TEST_TRANS       PACKAGE CHD              ON UNIT   1016 AT TIME STEP     10, STRESS PERIOD     58

 HEAD WILL BE SAVED ON UNIT 1017 AT END OF TIME STEP   10, STRESS PERIOD   58


  VOLUME BUDGET FOR ENTIRE MODEL AT END OF TIME STEP   10, STRESS PERIOD  58
  ---------------------------------------------------------------------------------------------------

     CUMULATIVE VOLUME      L**3       RATES FOR THIS TIME STEP      L**3/T          PACKAGE NAME    
     ------------------                 ------------------------                     ----------------

           IN:                                      IN:
           ---                                      ---
              STO-SS =          76.4946                STO-SS =           0.0000     STORAGE         
              STO-SY =       48917.2674                STO-SY =           0.0000     STORAGE         
                 RCH =      278042.5937                   RCH =         190.6849     RCHA            
                 CHD =         400.5133                   CHD =           0.0000     CHD             

            TOTAL IN =      327436.8691              TOTAL IN =         190.6849

          OUT:                                     OUT:
          ----                                     ----
              STO-SS =          66.6410                STO-SS =       5.2842E-02     STORAGE         
              STO-SY =       42982.7019                STO-SY =          33.3269     STORAGE         
                 RCH =           0.0000                   RCH =           0.0000     RCHA            
                 CHD =      284389.5183                   CHD =         157.3218     CHD             

           TOTAL OUT =      327438.8612             TOTAL OUT =         190.7015

            IN - OUT =          -1.9921              IN - OUT =      -1.6657E-02

 PERCENT DISCREPANCY =          -0.00     PERCENT DISCREPANCY =          -0.01




         TIME SUMMARY AT END OF TIME STEP   10 IN STRESS PERIOD   58
                    SECONDS     MINUTES      HOURS       DAYS        YEARS
                    -----------------------------------------------------------
   TIME STEP LENGTH 2.59200E+05  4320.0      72.000      3.0000     8.21355E-03
 STRESS PERIOD TIME 2.59200E+06  43200.      720.00      30.000     8.21355E-02
         TOTAL TIME 1.47830E+08 2.46384E+06  41064.      1711.0      4.6845    

 OUTPUT CONTROL FOR STRESS PERIOD 59 IS REPEATED USING SETTINGS FROM A PREVIOUS STRESS PERIOD.


 STRESS PERIOD 59 IS TRANSIENT


                 RECHARGE =  0.2465750E-02
 UBDSV1 SAVING           STO-SS ON UNIT   1016 AT TIME STEP      1, STRESS PERIOD     59
 UBDSV1 SAVING           STO-SY ON UNIT   1016 AT TIME STEP      1, STRESS PERIOD     59
 UBDSV1 SAVING     FLOW-JA-FACE ON UNIT   1016 AT TIME STEP      1, STRESS PERIOD     59
 UBDSV06 SAVING              RCH IN MODEL TEST_TRANS       PACKAGE TEST_TRANS      CONNECTED TO MODEL TEST_TRANS       PACKAGE RCHA             ON UNIT   1016 AT TIME STEP      1, STRESS PERIOD     59
 UBDSV06 SAVING              CHD IN MODEL TEST_TRANS       PACKAGE TEST_TRANS      CONNECTED TO MODEL TEST_TRANS       PACKAGE CHD              ON UNIT   1016 AT TIME STEP      1, STRESS PERIOD     59

 HEAD WILL BE SAVED ON UNIT 1017 AT END OF TIME STEP    1, STRESS PERIOD   59


  VOLUME BUDGET FOR ENTIRE MODEL AT END OF TIME STEP    1, STRESS PERIOD  59
  ---------------------------------------------------------------------------------------------------

     CUMULATIVE VOLUME      L**3       RATES FOR THIS TIME STEP      L**3/T          PACKAGE NAME    
     ------------------                 ------------------------                     ----------------

           IN:                                      IN:
           ---                                      ---
              STO-SS =          76.6182                STO-SS =       4.1210E-02     STORAGE         
              STO-SY =       49004.8990                STO-SY =          29.2105     STORAGE         
                 RCH =      278686.1545                   RCH =         214.5203     RCHA            
                 CHD =         400.5133                   CHD =           0.0000     CHD             

            TOTAL IN =      328168.1850              TOTAL IN =         243.7720

          OUT:                                     OUT:
          ----                                     ----
              STO-SS =          66.8734                STO-SS =       7.7483E-02     STORAGE         
              STO-SY =       43128.9119                STO-SY =          48.7367     STORAGE         
                 RCH =           0.0000                   RCH =           0.0000     RCHA            
                 CHD =      284974.4072                   CHD =         194.9630     CHD             

           TOTAL OUT =      328170.1925             TOTAL OUT =         243.7771

            IN - OUT =          -2.0075              IN - OUT =      -5.1304E-03

 PERCENT DISCREPANCY =          -0.00     PERCENT DISCREPANCY =          -0.00




         TIME SUMMARY AT END OF TIME STEP    1 IN STRESS PERIOD   59
                    SECONDS     MINUTES      HOURS       DAYS        YEARS
                    -----------------------------------------------------------
   TIME STEP LENGTH 2.59200E+05  4320.0      72.000      3.0000     8.21355E-03
 STRESS PERIOD TIME 2.59200E+05  4320.0      72.000      3.0000     8.21355E-03
         TOTAL TIME 1.48090E+08 2.46816E+06  41136.      1714.0      4.6927    
 UBDSV1 SAVING           STO-SS ON UNIT   1016 AT TIME STEP      2, STRESS PERIOD     59
 UBDSV1 SAVING           STO-SY ON UNIT   1016 AT TIME STEP      2, STRESS PERIOD     59
 UBDSV1 SAVING     FLOW-JA-FACE ON UNIT   1016 AT TIME STEP      2, STRESS PERIOD     59
 UBDSV06 SAVING              RCH IN MODEL TEST_TRANS       PACKAGE TEST_TRANS      CONNECTED TO MODEL TEST_TRANS       PACKAGE RCHA             ON UNIT   1016 AT TIME STEP      2, STRESS PERIOD     59
 UBDSV06 SAVING              CHD IN MODEL TEST_TRANS       PACKAGE TEST_TRANS      CONNECTED TO MODEL TEST_TRANS       PACKAGE CHD              ON UNIT   1016 AT TIME STEP      2, STRESS PERIOD     59

 HEAD WILL BE SAVED ON UNIT 1017 AT END OF TIME STEP    2, STRESS PERIOD   59


  VOLUME BUDGET FOR ENTIRE MODEL AT END OF TIME STEP    2, STRESS PERIOD  59
  ---------------------------------------------------------------------------------------------------

     CUMULATIVE VOLUME      L**3       RATES FOR THIS TIME STEP      L**3/T          PACKAGE NAME    
     ------------------                 ------------------------                     ----------------

           IN:                                      IN:
           ---                                      ---
              STO-SS =          76.6781                STO-SS =       1.9981E-02     STORAGE         
              STO-SY =       49047.0444                STO-SY =          14.0484     STORAGE         
                 RCH =      279329.7152                   RCH =         214.5203     RCHA            
                 CHD =         400.5133                   CHD =           0.0000     CHD             

            TOTAL IN =      328853.9511              TOTAL IN =         228.5887

          OUT:                                     OUT:
          ----                                     ----
              STO-SS =          67.0933                STO-SS =       7.3301E-02     STORAGE         
              STO-SY =       43266.8852                STO-SY =          45.9911     STORAGE         
                 RCH =           0.0000                   RCH =           0.0000     RCHA            
                 CHD =      285521.9947                   CHD =         182.5292     CHD             

           TOTAL OUT =      328855.9732             TOTAL OUT =         228.5936

            IN - OUT =          -2.0221              IN - OUT =      -4.8717E-03

 PERCENT DISCREPANCY =          -0.00     PERCENT DISCREPANCY =          -0.00




         TIME SUMMARY AT END OF TIME STEP    2 IN STRESS PERIOD   59
                    SECONDS     MINUTES      HOURS       DAYS        YEARS
                    -----------------------------------------------------------
   TIME STEP LENGTH 2.59200E+05  4320.0      72.000      3.0000     8.21355E-03
 STRESS PERIOD TIME 5.18400E+05  8640.0      144.00      6.0000     1.64271E-02
         TOTAL TIME 1.48349E+08 2.47248E+06  41208.      1717.0      4.7009    
 UBDSV1 SAVING           STO-SS ON UNIT   1016 AT TIME STEP      3, STRESS PERIOD     59
 UBDSV1 SAVING           STO-SY ON UNIT   1016 AT TIME STEP      3, STRESS PERIOD     59
 UBDSV1 SAVING     FLOW-JA-FACE ON UNIT   1016 AT TIME STEP      3, STRESS PERIOD     59
 UBDSV06 SAVING              RCH IN MODEL TEST_TRANS       PACKAGE TEST_TRANS      CONNECTED TO MODEL TEST_TRANS       PACKAGE RCHA             ON UNIT   1016 AT TIME STEP      3, STRESS PERIOD     59
 UBDSV06 SAVING              CHD IN MODEL TEST_TRANS       PACKAGE TEST_TRANS      CONNECTED TO MODEL TEST_TRANS       PACKAGE CHD              ON UNIT   1016 AT TIME STEP      3, STRESS PERIOD     59

 HEAD WILL BE SAVED ON UNIT 1017 AT END OF TIME STEP    3, STRESS PERIOD   59


  VOLUME BUDGET FOR ENTIRE MODEL AT END OF TIME STEP    3, STRESS PERIOD  59
  ---------------------------------------------------------------------------------------------------

     CUMULATIVE VOLUME      L**3       RATES FOR THIS TIME STEP      L**3/T          PACKAGE NAME    
     ------------------                 ------------------------                     ----------------

           IN:                                      IN:
           ---                                      ---
              STO-SS =          76.7104                STO-SS =       1.0760E-02     STORAGE         
              STO-SY =       49069.6261                STO-SY =           7.5272     STORAGE         
                 RCH =      279973.2760                   RCH =         214.5203     RCHA            
                 CHD =         400.5133                   CHD =           0.0000     CHD             

            TOTAL IN =      329520.1258              TOTAL IN =         222.0582

          OUT:                                     OUT:
          ----                                     ----
              STO-SS =          67.3041                STO-SS =       7.0253E-02     STORAGE         
              STO-SY =       43398.9113                STO-SY =          44.0087     STORAGE         
                 RCH =           0.0000                   RCH =           0.0000     RCHA            
                 CHD =      286055.9366                   CHD =         177.9806     CHD             

           TOTAL OUT =      329522.1520             TOTAL OUT =         222.0596

            IN - OUT =          -2.0262              IN - OUT =      -1.3566E-03

 PERCENT DISCREPANCY =          -0.00     PERCENT DISCREPANCY =          -0.00




         TIME SUMMARY AT END OF TIME STEP    3 IN STRESS PERIOD   59
                    SECONDS     MINUTES      HOURS       DAYS        YEARS
                    -----------------------------------------------------------
   TIME STEP LENGTH 2.59200E+05  4320.0      72.000      3.0000     8.21355E-03
 STRESS PERIOD TIME 7.77600E+05  12960.      216.00      9.0000     2.46407E-02
         TOTAL TIME 1.48608E+08 2.47680E+06  41280.      1720.0      4.7091    
 UBDSV1 SAVING           STO-SS ON UNIT   1016 AT TIME STEP      4, STRESS PERIOD     59
 UBDSV1 SAVING           STO-SY ON UNIT   1016 AT TIME STEP      4, STRESS PERIOD     59
 UBDSV1 SAVING     FLOW-JA-FACE ON UNIT   1016 AT TIME STEP      4, STRESS PERIOD     59
 UBDSV06 SAVING              RCH IN MODEL TEST_TRANS       PACKAGE TEST_TRANS      CONNECTED TO MODEL TEST_TRANS       PACKAGE RCHA             ON UNIT   1016 AT TIME STEP      4, STRESS PERIOD     59
 UBDSV06 SAVING              CHD IN MODEL TEST_TRANS       PACKAGE TEST_TRANS      CONNECTED TO MODEL TEST_TRANS       PACKAGE CHD              ON UNIT   1016 AT TIME STEP      4, STRESS PERIOD     59

 HEAD WILL BE SAVED ON UNIT 1017 AT END OF TIME STEP    4, STRESS PERIOD   59


  VOLUME BUDGET FOR ENTIRE MODEL AT END OF TIME STEP    4, STRESS PERIOD  59
  ---------------------------------------------------------------------------------------------------

     CUMULATIVE VOLUME      L**3       RATES FOR THIS TIME STEP      L**3/T          PACKAGE NAME    
     ------------------                 ------------------------                     ----------------

           IN:                                      IN:
           ---                                      ---
              STO-SS =          76.7276                STO-SS =       5.7331E-03     STORAGE         
              STO-SY =       49081.6402                STO-SY =           4.0047     STORAGE         
                 RCH =      280616.8367                   RCH =         214.5203     RCHA            
                 CHD =         400.5133                   CHD =           0.0000     CHD             

            TOTAL IN =      330175.7179              TOTAL IN =         218.5307

          OUT:                                     OUT:
          ----                                     ----
              STO-SS =          67.5080                STO-SS =       6.7964E-02     STORAGE         
              STO-SY =       43526.5023                STO-SY =          42.5303     STORAGE         
                 RCH =           0.0000                   RCH =           0.0000     RCHA            
                 CHD =      286583.7359                   CHD =         175.9331     CHD             

           TOTAL OUT =      330177.7462             TOTAL OUT =         218.5314

            IN - OUT =          -2.0283              IN - OUT =      -7.0116E-04

 PERCENT DISCREPANCY =          -0.00     PERCENT DISCREPANCY =          -0.00




         TIME SUMMARY AT END OF TIME STEP    4 IN STRESS PERIOD   59
                    SECONDS     MINUTES      HOURS       DAYS        YEARS
                    -----------------------------------------------------------
   TIME STEP LENGTH 2.59200E+05  4320.0      72.000      3.0000     8.21355E-03
 STRESS PERIOD TIME 1.03680E+06  17280.      288.00      12.000     3.28542E-02
         TOTAL TIME 1.48867E+08 2.48112E+06  41352.      1723.0      4.7173    
 UBDSV1 SAVING           STO-SS ON UNIT   1016 AT TIME STEP      5, STRESS PERIOD     59
 UBDSV1 SAVING           STO-SY ON UNIT   1016 AT TIME STEP      5, STRESS PERIOD     59
 UBDSV1 SAVING     FLOW-JA-FACE ON UNIT   1016 AT TIME STEP      5, STRESS PERIOD     59
 UBDSV06 SAVING              RCH IN MODEL TEST_TRANS       PACKAGE TEST_TRANS      CONNECTED TO MODEL TEST_TRANS       PACKAGE RCHA             ON UNIT   1016 AT TIME STEP      5, STRESS PERIOD     59
 UBDSV06 SAVING              CHD IN MODEL TEST_TRANS       PACKAGE TEST_TRANS      CONNECTED TO MODEL TEST_TRANS       PACKAGE CHD              ON UNIT   1016 AT TIME STEP      5, STRESS PERIOD     59

 HEAD WILL BE SAVED ON UNIT 1017 AT END OF TIME STEP    5, STRESS PERIOD   59


  VOLUME BUDGET FOR ENTIRE MODEL AT END OF TIME STEP    5, STRESS PERIOD  59
  ---------------------------------------------------------------------------------------------------

     CUMULATIVE VOLUME      L**3       RATES FOR THIS TIME STEP      L**3/T          PACKAGE NAME    
     ------------------                 ------------------------                     ----------------

           IN:                                      IN:
           ---                                      ---
              STO-SS =          76.7358                STO-SS =       2.7294E-03     STORAGE         
              STO-SY =       49087.3717                STO-SY =           1.9105     STORAGE         
                 RCH =      281260.3975                   RCH =         214.5203     RCHA            
                 CHD =         400.5133                   CHD =           0.0000     CHD             

            TOTAL IN =      330825.0183              TOTAL IN =         216.4335

          OUT:                                     OUT:
          ----                                     ----
              STO-SS =          67.7067                STO-SS =       6.6251E-02     STORAGE         
              STO-SY =       43650.8011                STO-SY =          41.4329     STORAGE         
                 RCH =           0.0000                   RCH =           0.0000     RCHA            
                 CHD =      287108.5421                   CHD =         174.9354     CHD             

           TOTAL OUT =      330827.0499             TOTAL OUT =         216.4346

            IN - OUT =          -2.0316              IN - OUT =      -1.1093E-03

 PERCENT DISCREPANCY =          -0.00     PERCENT DISCREPANCY =          -0.00




         TIME SUMMARY AT END OF TIME STEP    5 IN STRESS PERIOD   59
                    SECONDS     MINUTES      HOURS       DAYS        YEARS
                    -----------------------------------------------------------
   TIME STEP LENGTH 2.59200E+05  4320.0      72.000      3.0000     8.21355E-03
 STRESS PERIOD TIME 1.29600E+06  21600.      360.00      15.000     4.10678E-02
         TOTAL TIME 1.49126E+08 2.48544E+06  41424.      1726.0      4.7255    
 UBDSV1 SAVING           STO-SS ON UNIT   1016 AT TIME STEP      6, STRESS PERIOD     59
 UBDSV1 SAVING           STO-SY ON UNIT   1016 AT TIME STEP      6, STRESS PERIOD     59
 UBDSV1 SAVING     FLOW-JA-FACE ON UNIT   1016 AT TIME STEP      6, STRESS PERIOD     59
 UBDSV06 SAVING              RCH IN MODEL TEST_TRANS       PACKAGE TEST_TRANS      CONNECTED TO MODEL TEST_TRANS       PACKAGE RCHA             ON UNIT   1016 AT TIME STEP      6, STRESS PERIOD     59
 UBDSV06 SAVING              CHD IN MODEL TEST_TRANS       PACKAGE TEST_TRANS      CONNECTED TO MODEL TEST_TRANS       PACKAGE CHD              ON UNIT   1016 AT TIME STEP      6, STRESS PERIOD     59

 HEAD WILL BE SAVED ON UNIT 1017 AT END OF TIME STEP    6, STRESS PERIOD   59


  VOLUME BUDGET FOR ENTIRE MODEL AT END OF TIME STEP    6, STRESS PERIOD  59
  ---------------------------------------------------------------------------------------------------

     CUMULATIVE VOLUME      L**3       RATES FOR THIS TIME STEP      L**3/T          PACKAGE NAME    
     ------------------                 ------------------------                     ----------------

           IN:                                      IN:
           ---                                      ---
              STO-SS =          76.7388                STO-SS =       1.0125E-03     STORAGE         
              STO-SY =       49089.5098                STO-SY =           0.7127     STORAGE         
                 RCH =      281903.9582                   RCH =         214.5203     RCHA            
                 CHD =         400.5133                   CHD =           0.0000     CHD             

            TOTAL IN =      331470.7202              TOTAL IN =         215.2340

          OUT:                                     OUT:
          ----                                     ----
              STO-SS =          67.9020                STO-SS =       6.5085E-02     STORAGE         
              STO-SY =       43772.8937                STO-SY =          40.6975     STORAGE         
                 RCH =           0.0000                   RCH =           0.0000     RCHA            
                 CHD =      287631.9605                   CHD =         174.4728     CHD             

           TOTAL OUT =      331472.7561             TOTAL OUT =         215.2354

            IN - OUT =          -2.0359              IN - OUT =      -1.4220E-03

 PERCENT DISCREPANCY =          -0.00     PERCENT DISCREPANCY =          -0.00




         TIME SUMMARY AT END OF TIME STEP    6 IN STRESS PERIOD   59
                    SECONDS     MINUTES      HOURS       DAYS        YEARS
                    -----------------------------------------------------------
   TIME STEP LENGTH 2.59200E+05  4320.0      72.000      3.0000     8.21355E-03
 STRESS PERIOD TIME 1.55520E+06  25920.      432.00      18.000     4.92813E-02
         TOTAL TIME 1.49386E+08 2.48976E+06  41496.      1729.0      4.7337    
 UBDSV1 SAVING           STO-SS ON UNIT   1016 AT TIME STEP      7, STRESS PERIOD     59
 UBDSV1 SAVING           STO-SY ON UNIT   1016 AT TIME STEP      7, STRESS PERIOD     59
 UBDSV1 SAVING     FLOW-JA-FACE ON UNIT   1016 AT TIME STEP      7, STRESS PERIOD     59
 UBDSV06 SAVING              RCH IN MODEL TEST_TRANS       PACKAGE TEST_TRANS      CONNECTED TO MODEL TEST_TRANS       PACKAGE RCHA             ON UNIT   1016 AT TIME STEP      7, STRESS PERIOD     59
 UBDSV06 SAVING              CHD IN MODEL TEST_TRANS       PACKAGE TEST_TRANS      CONNECTED TO MODEL TEST_TRANS       PACKAGE CHD              ON UNIT   1016 AT TIME STEP      7, STRESS PERIOD     59

 HEAD WILL BE SAVED ON UNIT 1017 AT END OF TIME STEP    7, STRESS PERIOD   59


  VOLUME BUDGET FOR ENTIRE MODEL AT END OF TIME STEP    7, STRESS PERIOD  59
  ---------------------------------------------------------------------------------------------------

     CUMULATIVE VOLUME      L**3       RATES FOR THIS TIME STEP      L**3/T          PACKAGE NAME    
     ------------------                 ------------------------                     ----------------

           IN:                                      IN:
           ---                                      ---
              STO-SS =          76.7394                STO-SS =       1.9356E-04     STORAGE         
              STO-SY =       49089.9228                STO-SY =           0.1376     STORAGE         
                 RCH =      282547.5190                   RCH =         214.5203     RCHA            
                 CHD =         400.5133                   CHD =           0.0000     CHD             

            TOTAL IN =      332114.6945              TOTAL IN =         214.6581

          OUT:                                     OUT:
          ----                                     ----
              STO-SS =          68.0952                STO-SS =       6.4405E-02     STORAGE         
              STO-SY =       43893.7504                STO-SY =          40.2856     STORAGE         
                 RCH =           0.0000                   RCH =           0.0000     RCHA            
                 CHD =      288154.9088                   CHD =         174.3161     CHD             

           TOTAL OUT =      332116.7544             TOTAL OUT =         214.6661

            IN - OUT =          -2.0599              IN - OUT =      -8.0284E-03

 PERCENT DISCREPANCY =          -0.00     PERCENT DISCREPANCY =          -0.00




         TIME SUMMARY AT END OF TIME STEP    7 IN STRESS PERIOD   59
                    SECONDS     MINUTES      HOURS       DAYS        YEARS
                    -----------------------------------------------------------
   TIME STEP LENGTH 2.59200E+05  4320.0      72.000      3.0000     8.21355E-03
 STRESS PERIOD TIME 1.81440E+06  30240.      504.00      21.000     5.74949E-02
         TOTAL TIME 1.49645E+08 2.49408E+06  41568.      1732.0      4.7420    
 UBDSV1 SAVING           STO-SS ON UNIT   1016 AT TIME STEP      8, STRESS PERIOD     59
 UBDSV1 SAVING           STO-SY ON UNIT   1016 AT TIME STEP      8, STRESS PERIOD     59
 UBDSV1 SAVING     FLOW-JA-FACE ON UNIT   1016 AT TIME STEP      8, STRESS PERIOD     59
 UBDSV06 SAVING              RCH IN MODEL TEST_TRANS       PACKAGE TEST_TRANS      CONNECTED TO MODEL TEST_TRANS       PACKAGE RCHA             ON UNIT   1016 AT TIME STEP      8, STRESS PERIOD     59
 UBDSV06 SAVING              CHD IN MODEL TEST_TRANS       PACKAGE TEST_TRANS      CONNECTED TO MODEL TEST_TRANS       PACKAGE CHD              ON UNIT   1016 AT TIME STEP      8, STRESS PERIOD     59

 HEAD WILL BE SAVED ON UNIT 1017 AT END OF TIME STEP    8, STRESS PERIOD   59


  VOLUME BUDGET FOR ENTIRE MODEL AT END OF TIME STEP    8, STRESS PERIOD  59
  ---------------------------------------------------------------------------------------------------

     CUMULATIVE VOLUME      L**3       RATES FOR THIS TIME STEP      L**3/T          PACKAGE NAME    
     ------------------                 ------------------------                     ----------------

           IN:                                      IN:
           ---                                      ---
              STO-SS =          76.7394                STO-SS =           0.0000     STORAGE         
              STO-SY =       49089.9228                STO-SY =           0.0000     STORAGE         
                 RCH =      283191.0797                   RCH =         214.5203     RCHA            
                 CHD =         400.5133                   CHD =           0.0000     CHD             

            TOTAL IN =      332758.2552              TOTAL IN =         214.5203

          OUT:                                     OUT:
          ----                                     ----
              STO-SS =          68.2874                STO-SS =       6.4062E-02     STORAGE         
              STO-SY =       44014.0712                STO-SY =          40.1069     STORAGE         
                 RCH =           0.0000                   RCH =           0.0000     RCHA            
                 CHD =      288677.9962                   CHD =         174.3624     CHD             

           TOTAL OUT =      332760.3547             TOTAL OUT =         214.5334

            IN - OUT =          -2.0994              IN - OUT =      -1.3167E-02

 PERCENT DISCREPANCY =          -0.00     PERCENT DISCREPANCY =          -0.01




         TIME SUMMARY AT END OF TIME STEP    8 IN STRESS PERIOD   59
                    SECONDS     MINUTES      HOURS       DAYS        YEARS
                    -----------------------------------------------------------
   TIME STEP LENGTH 2.59200E+05  4320.0      72.000      3.0000     8.21355E-03
 STRESS PERIOD TIME 2.07360E+06  34560.      576.00      24.000     6.57084E-02
         TOTAL TIME 1.49904E+08 2.49840E+06  41640.      1735.0      4.7502    
 UBDSV1 SAVING           STO-SS ON UNIT   1016 AT TIME STEP      9, STRESS PERIOD     59
 UBDSV1 SAVING           STO-SY ON UNIT   1016 AT TIME STEP      9, STRESS PERIOD     59
 UBDSV1 SAVING     FLOW-JA-FACE ON UNIT   1016 AT TIME STEP      9, STRESS PERIOD     59
 UBDSV06 SAVING              RCH IN MODEL TEST_TRANS       PACKAGE TEST_TRANS      CONNECTED TO MODEL TEST_TRANS       PACKAGE RCHA             ON UNIT   1016 AT TIME STEP      9, STRESS PERIOD     59
 UBDSV06 SAVING              CHD IN MODEL TEST_TRANS       PACKAGE TEST_TRANS      CONNECTED TO MODEL TEST_TRANS       PACKAGE CHD              ON UNIT   1016 AT TIME STEP      9, STRESS PERIOD     59

 HEAD WILL BE SAVED ON UNIT 1017 AT END OF TIME STEP    9, STRESS PERIOD   59


  VOLUME BUDGET FOR ENTIRE MODEL AT END OF TIME STEP    9, STRESS PERIOD  59
  ---------------------------------------------------------------------------------------------------

     CUMULATIVE VOLUME      L**3       RATES FOR THIS TIME STEP      L**3/T          PACKAGE NAME    
     ------------------                 ------------------------                     ----------------

           IN:                                      IN:
           ---                                      ---
              STO-SS =          76.7394                STO-SS =           0.0000     STORAGE         
              STO-SY =       49089.9228                STO-SY =           0.0000     STORAGE         
                 RCH =      283834.6405                   RCH =         214.5203     RCHA            
                 CHD =         400.5133                   CHD =           0.0000     CHD             

            TOTAL IN =      333401.8160              TOTAL IN =         214.5203

          OUT:                                     OUT:
          ----                                     ----
              STO-SS =          68.4786                STO-SS =       6.3728E-02     STORAGE         
              STO-SY =       44133.8690                STO-SY =          39.9326     STORAGE         
                 RCH =           0.0000                   RCH =           0.0000     RCHA            
                 CHD =      289201.6201                   CHD =         174.5413     CHD             

           TOTAL OUT =      333403.9677             TOTAL OUT =         214.5377

            IN - OUT =          -2.1517              IN - OUT =      -1.7405E-02

 PERCENT DISCREPANCY =          -0.00     PERCENT DISCREPANCY =          -0.01




         TIME SUMMARY AT END OF TIME STEP    9 IN STRESS PERIOD   59
                    SECONDS     MINUTES      HOURS       DAYS        YEARS
                    -----------------------------------------------------------
   TIME STEP LENGTH 2.59200E+05  4320.0      72.000      3.0000     8.21355E-03
 STRESS PERIOD TIME 2.33280E+06  38880.      648.00      27.000     7.39220E-02
         TOTAL TIME 1.50163E+08 2.50272E+06  41712.      1738.0      4.7584    
 UBDSV1 SAVING           STO-SS ON UNIT   1016 AT TIME STEP     10, STRESS PERIOD     59
 UBDSV1 SAVING           STO-SY ON UNIT   1016 AT TIME STEP     10, STRESS PERIOD     59
 UBDSV1 SAVING     FLOW-JA-FACE ON UNIT   1016 AT TIME STEP     10, STRESS PERIOD     59
 UBDSV06 SAVING              RCH IN MODEL TEST_TRANS       PACKAGE TEST_TRANS      CONNECTED TO MODEL TEST_TRANS       PACKAGE RCHA             ON UNIT   1016 AT TIME STEP     10, STRESS PERIOD     59
 UBDSV06 SAVING              CHD IN MODEL TEST_TRANS       PACKAGE TEST_TRANS      CONNECTED TO MODEL TEST_TRANS       PACKAGE CHD              ON UNIT   1016 AT TIME STEP     10, STRESS PERIOD     59

 HEAD WILL BE SAVED ON UNIT 1017 AT END OF TIME STEP   10, STRESS PERIOD   59


  VOLUME BUDGET FOR ENTIRE MODEL AT END OF TIME STEP   10, STRESS PERIOD  59
  ---------------------------------------------------------------------------------------------------

     CUMULATIVE VOLUME      L**3       RATES FOR THIS TIME STEP      L**3/T          PACKAGE NAME    
     ------------------                 ------------------------                     ----------------

           IN:                                      IN:
           ---                                      ---
              STO-SS =          76.7394                STO-SS =           0.0000     STORAGE         
              STO-SY =       49089.9228                STO-SY =           0.0000     STORAGE         
                 RCH =      284478.2012                   RCH =         214.5203     RCHA            
                 CHD =         400.5133                   CHD =           0.0000     CHD             

            TOTAL IN =      334045.3767              TOTAL IN =         214.5203

          OUT:                                     OUT:
          ----                                     ----
              STO-SS =          68.6684                STO-SS =       6.3266E-02     STORAGE         
              STO-SY =       44252.8684                STO-SY =          39.6665     STORAGE         
                 RCH =           0.0000                   RCH =           0.0000     RCHA            
                 CHD =      289726.0545                   CHD =         174.8115     CHD             

           TOTAL OUT =      334047.5913             TOTAL OUT =         214.5412

            IN - OUT =          -2.2145              IN - OUT =      -2.0953E-02

 PERCENT DISCREPANCY =          -0.00     PERCENT DISCREPANCY =          -0.01




         TIME SUMMARY AT END OF TIME STEP   10 IN STRESS PERIOD   59
                    SECONDS     MINUTES      HOURS       DAYS        YEARS
                    -----------------------------------------------------------
   TIME STEP LENGTH 2.59200E+05  4320.0      72.000      3.0000     8.21355E-03
 STRESS PERIOD TIME 2.59200E+06  43200.      720.00      30.000     8.21355E-02
         TOTAL TIME 1.50422E+08 2.50704E+06  41784.      1741.0      4.7666    

 OUTPUT CONTROL FOR STRESS PERIOD 60 IS REPEATED USING SETTINGS FROM A PREVIOUS STRESS PERIOD.


 STRESS PERIOD 60 IS TRANSIENT


                 RECHARGE =  0.2739730E-02
 UBDSV1 SAVING           STO-SS ON UNIT   1016 AT TIME STEP      1, STRESS PERIOD     60
 UBDSV1 SAVING           STO-SY ON UNIT   1016 AT TIME STEP      1, STRESS PERIOD     60
 UBDSV1 SAVING     FLOW-JA-FACE ON UNIT   1016 AT TIME STEP      1, STRESS PERIOD     60
 UBDSV06 SAVING              RCH IN MODEL TEST_TRANS       PACKAGE TEST_TRANS      CONNECTED TO MODEL TEST_TRANS       PACKAGE RCHA             ON UNIT   1016 AT TIME STEP      1, STRESS PERIOD     60
 UBDSV06 SAVING              CHD IN MODEL TEST_TRANS       PACKAGE TEST_TRANS      CONNECTED TO MODEL TEST_TRANS       PACKAGE CHD              ON UNIT   1016 AT TIME STEP      1, STRESS PERIOD     60

 HEAD WILL BE SAVED ON UNIT 1017 AT END OF TIME STEP    1, STRESS PERIOD   60


  VOLUME BUDGET FOR ENTIRE MODEL AT END OF TIME STEP    1, STRESS PERIOD  60
  ---------------------------------------------------------------------------------------------------

     CUMULATIVE VOLUME      L**3       RATES FOR THIS TIME STEP      L**3/T          PACKAGE NAME    
     ------------------                 ------------------------                     ----------------

           IN:                                      IN:
           ---                                      ---
              STO-SS =          76.8537                STO-SS =       3.8094E-02     STORAGE         
              STO-SY =       49171.4986                STO-SY =          27.1920     STORAGE         
                 RCH =      285193.2708                   RCH =         238.3565     RCHA            
                 CHD =         400.5133                   CHD =           0.0000     CHD             

            TOTAL IN =      334842.1364              TOTAL IN =         265.5866

          OUT:                                     OUT:
          ----                                     ----
              STO-SS =          68.9322                STO-SS =       8.7952E-02     STORAGE         
              STO-SY =       44417.8416                STO-SY =          54.9911     STORAGE         
                 RCH =           0.0000                   RCH =           0.0000     RCHA            
                 CHD =      290357.5836                   CHD =         210.5097     CHD             

           TOTAL OUT =      334844.3574             TOTAL OUT =         265.5887

            IN - OUT =          -2.2210              IN - OUT =      -2.1669E-03

 PERCENT DISCREPANCY =          -0.00     PERCENT DISCREPANCY =          -0.00




         TIME SUMMARY AT END OF TIME STEP    1 IN STRESS PERIOD   60
                    SECONDS     MINUTES      HOURS       DAYS        YEARS
                    -----------------------------------------------------------
   TIME STEP LENGTH 2.59200E+05  4320.0      72.000      3.0000     8.21355E-03
 STRESS PERIOD TIME 2.59200E+05  4320.0      72.000      3.0000     8.21355E-03
         TOTAL TIME 1.50682E+08 2.51136E+06  41856.      1744.0      4.7748    
 UBDSV1 SAVING           STO-SS ON UNIT   1016 AT TIME STEP      2, STRESS PERIOD     60
 UBDSV1 SAVING           STO-SY ON UNIT   1016 AT TIME STEP      2, STRESS PERIOD     60
 UBDSV1 SAVING     FLOW-JA-FACE ON UNIT   1016 AT TIME STEP      2, STRESS PERIOD     60
 UBDSV06 SAVING              RCH IN MODEL TEST_TRANS       PACKAGE TEST_TRANS      CONNECTED TO MODEL TEST_TRANS       PACKAGE RCHA             ON UNIT   1016 AT TIME STEP      2, STRESS PERIOD     60
 UBDSV06 SAVING              CHD IN MODEL TEST_TRANS       PACKAGE TEST_TRANS      CONNECTED TO MODEL TEST_TRANS       PACKAGE CHD              ON UNIT   1016 AT TIME STEP      2, STRESS PERIOD     60

 HEAD WILL BE SAVED ON UNIT 1017 AT END OF TIME STEP    2, STRESS PERIOD   60


  VOLUME BUDGET FOR ENTIRE MODEL AT END OF TIME STEP    2, STRESS PERIOD  60
  ---------------------------------------------------------------------------------------------------

     CUMULATIVE VOLUME      L**3       RATES FOR THIS TIME STEP      L**3/T          PACKAGE NAME    
     ------------------                 ------------------------                     ----------------

           IN:                                      IN:
           ---                                      ---
              STO-SS =          76.9077                STO-SS =       1.7987E-02     STORAGE         
              STO-SY =       49209.6979                STO-SY =          12.7331     STORAGE         
                 RCH =      285908.3403                   RCH =         238.3565     RCHA            
                 CHD =         400.5133                   CHD =           0.0000     CHD             

            TOTAL IN =      335595.4592              TOTAL IN =         251.1076

          OUT:                                     OUT:
          ----                                     ----
              STO-SS =          69.1829                STO-SS =       8.3546E-02     STORAGE         
              STO-SY =       44574.1491                STO-SY =          52.1025     STORAGE         
                 RCH =           0.0000                   RCH =           0.0000     RCHA            
                 CHD =      290954.3671                   CHD =         198.9279     CHD             

           TOTAL OUT =      335597.6991             TOTAL OUT =         251.1139

            IN - OUT =          -2.2399              IN - OUT =      -6.2950E-03

 PERCENT DISCREPANCY =          -0.00     PERCENT DISCREPANCY =          -0.00




         TIME SUMMARY AT END OF TIME STEP    2 IN STRESS PERIOD   60
                    SECONDS     MINUTES      HOURS       DAYS        YEARS
                    -----------------------------------------------------------
   TIME STEP LENGTH 2.59200E+05  4320.0      72.000      3.0000     8.21355E-03
 STRESS PERIOD TIME 5.18400E+05  8640.0      144.00      6.0000     1.64271E-02
         TOTAL TIME 1.50941E+08 2.51568E+06  41928.      1747.0      4.7830    
 UBDSV1 SAVING           STO-SS ON UNIT   1016 AT TIME STEP      3, STRESS PERIOD     60
 UBDSV1 SAVING           STO-SY ON UNIT   1016 AT TIME STEP      3, STRESS PERIOD     60
 UBDSV1 SAVING     FLOW-JA-FACE ON UNIT   1016 AT TIME STEP      3, STRESS PERIOD     60
 UBDSV06 SAVING              RCH IN MODEL TEST_TRANS       PACKAGE TEST_TRANS      CONNECTED TO MODEL TEST_TRANS       PACKAGE RCHA             ON UNIT   1016 AT TIME STEP      3, STRESS PERIOD     60
 UBDSV06 SAVING              CHD IN MODEL TEST_TRANS       PACKAGE TEST_TRANS      CONNECTED TO MODEL TEST_TRANS       PACKAGE CHD              ON UNIT   1016 AT TIME STEP      3, STRESS PERIOD     60

 HEAD WILL BE SAVED ON UNIT 1017 AT END OF TIME STEP    3, STRESS PERIOD   60


  VOLUME BUDGET FOR ENTIRE MODEL AT END OF TIME STEP    3, STRESS PERIOD  60
  ---------------------------------------------------------------------------------------------------

     CUMULATIVE VOLUME      L**3       RATES FOR THIS TIME STEP      L**3/T          PACKAGE NAME    
     ------------------                 ------------------------                     ----------------

           IN:                                      IN:
           ---                                      ---
              STO-SS =          76.9354                STO-SS =       9.2554E-03     STORAGE         
              STO-SY =       49229.2574                STO-SY =           6.5198     STORAGE         
                 RCH =      286623.4098                   RCH =         238.3565     RCHA            
                 CHD =         400.5133                   CHD =           0.0000     CHD             

            TOTAL IN =      336330.1160              TOTAL IN =         244.8856

          OUT:                                     OUT:
          ----                                     ----
              STO-SS =          69.4242                STO-SS =       8.0450E-02     STORAGE         
              STO-SY =       44724.4341                STO-SY =          50.0950     STORAGE         
                 RCH =           0.0000                   RCH =           0.0000     RCHA            
                 CHD =      291538.5036                   CHD =         194.7122     CHD             

           TOTAL OUT =      336332.3619             TOTAL OUT =         244.8876

            IN - OUT =          -2.2459              IN - OUT =      -2.0068E-03

 PERCENT DISCREPANCY =          -0.00     PERCENT DISCREPANCY =          -0.00




         TIME SUMMARY AT END OF TIME STEP    3 IN STRESS PERIOD   60
                    SECONDS     MINUTES      HOURS       DAYS        YEARS
                    -----------------------------------------------------------
   TIME STEP LENGTH 2.59200E+05  4320.0      72.000      3.0000     8.21355E-03
 STRESS PERIOD TIME 7.77600E+05  12960.      216.00      9.0000     2.46407E-02
         TOTAL TIME 1.51200E+08 2.52000E+06  42000.      1750.0      4.7912    
 UBDSV1 SAVING           STO-SS ON UNIT   1016 AT TIME STEP      4, STRESS PERIOD     60
 UBDSV1 SAVING           STO-SY ON UNIT   1016 AT TIME STEP      4, STRESS PERIOD     60
 UBDSV1 SAVING     FLOW-JA-FACE ON UNIT   1016 AT TIME STEP      4, STRESS PERIOD     60
 UBDSV06 SAVING              RCH IN MODEL TEST_TRANS       PACKAGE TEST_TRANS      CONNECTED TO MODEL TEST_TRANS       PACKAGE RCHA             ON UNIT   1016 AT TIME STEP      4, STRESS PERIOD     60
 UBDSV06 SAVING              CHD IN MODEL TEST_TRANS       PACKAGE TEST_TRANS      CONNECTED TO MODEL TEST_TRANS       PACKAGE CHD              ON UNIT   1016 AT TIME STEP      4, STRESS PERIOD     60

 HEAD WILL BE SAVED ON UNIT 1017 AT END OF TIME STEP    4, STRESS PERIOD   60


  VOLUME BUDGET FOR ENTIRE MODEL AT END OF TIME STEP    4, STRESS PERIOD  60
  ---------------------------------------------------------------------------------------------------

     CUMULATIVE VOLUME      L**3       RATES FOR THIS TIME STEP      L**3/T          PACKAGE NAME    
     ------------------                 ------------------------                     ----------------

           IN:                                      IN:
           ---                                      ---
              STO-SS =          76.9491                STO-SS =       4.5525E-03     STORAGE         
              STO-SY =       49238.8721                STO-SY =           3.2049     STORAGE         
                 RCH =      287338.4793                   RCH =         238.3565     RCHA            
                 CHD =         400.5133                   CHD =           0.0000     CHD             

            TOTAL IN =      337054.8139              TOTAL IN =         241.5660

          OUT:                                     OUT:
          ----                                     ----
              STO-SS =          69.6587                STO-SS =       7.8149E-02     STORAGE         
              STO-SY =       44870.2837                STO-SY =          48.6165     STORAGE         
                 RCH =           0.0000                   RCH =           0.0000     RCHA            
                 CHD =      292117.1220                   CHD =         192.8728     CHD             

           TOTAL OUT =      337057.0644             TOTAL OUT =         241.5675

            IN - OUT =          -2.2505              IN - OUT =      -1.5346E-03

 PERCENT DISCREPANCY =          -0.00     PERCENT DISCREPANCY =          -0.00




         TIME SUMMARY AT END OF TIME STEP    4 IN STRESS PERIOD   60
                    SECONDS     MINUTES      HOURS       DAYS        YEARS
                    -----------------------------------------------------------
   TIME STEP LENGTH 2.59200E+05  4320.0      72.000      3.0000     8.21355E-03
 STRESS PERIOD TIME 1.03680E+06  17280.      288.00      12.000     3.28542E-02
         TOTAL TIME 1.51459E+08 2.52432E+06  42072.      1753.0      4.7995    
 UBDSV1 SAVING           STO-SS ON UNIT   1016 AT TIME STEP      5, STRESS PERIOD     60
 UBDSV1 SAVING           STO-SY ON UNIT   1016 AT TIME STEP      5, STRESS PERIOD     60
 UBDSV1 SAVING     FLOW-JA-FACE ON UNIT   1016 AT TIME STEP      5, STRESS PERIOD     60
 UBDSV06 SAVING              RCH IN MODEL TEST_TRANS       PACKAGE TEST_TRANS      CONNECTED TO MODEL TEST_TRANS       PACKAGE RCHA             ON UNIT   1016 AT TIME STEP      5, STRESS PERIOD     60
 UBDSV06 SAVING              CHD IN MODEL TEST_TRANS       PACKAGE TEST_TRANS      CONNECTED TO MODEL TEST_TRANS       PACKAGE CHD              ON UNIT   1016 AT TIME STEP      5, STRESS PERIOD     60

 HEAD WILL BE SAVED ON UNIT 1017 AT END OF TIME STEP    5, STRESS PERIOD   60


  VOLUME BUDGET FOR ENTIRE MODEL AT END OF TIME STEP    5, STRESS PERIOD  60
  ---------------------------------------------------------------------------------------------------

     CUMULATIVE VOLUME      L**3       RATES FOR THIS TIME STEP      L**3/T          PACKAGE NAME    
     ------------------                 ------------------------                     ----------------

           IN:                                      IN:
           ---                                      ---
              STO-SS =          76.9547                STO-SS =       1.8714E-03     STORAGE         
              STO-SY =       49242.8388                STO-SY =           1.3222     STORAGE         
                 RCH =      288053.5489                   RCH =         238.3565     RCHA            
                 CHD =         400.5133                   CHD =           0.0000     CHD             

            TOTAL IN =      337773.8557              TOTAL IN =         239.6806

          OUT:                                     OUT:
          ----                                     ----
              STO-SS =          69.8882                STO-SS =       7.6496E-02     STORAGE         
              STO-SY =       45012.9828                STO-SY =          47.5663     STORAGE         
                 RCH =           0.0000                   RCH =           0.0000     RCHA            
                 CHD =      292693.2411                   CHD =         192.0397     CHD             

           TOTAL OUT =      337776.1120             TOTAL OUT =         239.6825

            IN - OUT =          -2.2563              IN - OUT =      -1.9095E-03

 PERCENT DISCREPANCY =          -0.00     PERCENT DISCREPANCY =          -0.00




         TIME SUMMARY AT END OF TIME STEP    5 IN STRESS PERIOD   60
                    SECONDS     MINUTES      HOURS       DAYS        YEARS
                    -----------------------------------------------------------
   TIME STEP LENGTH 2.59200E+05  4320.0      72.000      3.0000     8.21355E-03
 STRESS PERIOD TIME 1.29600E+06  21600.      360.00      15.000     4.10678E-02
         TOTAL TIME 1.51718E+08 2.52864E+06  42144.      1756.0      4.8077    
 UBDSV1 SAVING           STO-SS ON UNIT   1016 AT TIME STEP      6, STRESS PERIOD     60
 UBDSV1 SAVING           STO-SY ON UNIT   1016 AT TIME STEP      6, STRESS PERIOD     60
 UBDSV1 SAVING     FLOW-JA-FACE ON UNIT   1016 AT TIME STEP      6, STRESS PERIOD     60
 UBDSV06 SAVING              RCH IN MODEL TEST_TRANS       PACKAGE TEST_TRANS      CONNECTED TO MODEL TEST_TRANS       PACKAGE RCHA             ON UNIT   1016 AT TIME STEP      6, STRESS PERIOD     60
 UBDSV06 SAVING              CHD IN MODEL TEST_TRANS       PACKAGE TEST_TRANS      CONNECTED TO MODEL TEST_TRANS       PACKAGE CHD              ON UNIT   1016 AT TIME STEP      6, STRESS PERIOD     60

 HEAD WILL BE SAVED ON UNIT 1017 AT END OF TIME STEP    6, STRESS PERIOD   60


  VOLUME BUDGET FOR ENTIRE MODEL AT END OF TIME STEP    6, STRESS PERIOD  60
  ---------------------------------------------------------------------------------------------------

     CUMULATIVE VOLUME      L**3       RATES FOR THIS TIME STEP      L**3/T          PACKAGE NAME    
     ------------------                 ------------------------                     ----------------

           IN:                                      IN:
           ---                                      ---
              STO-SS =          76.9562                STO-SS =       4.8277E-04     STORAGE         
              STO-SY =       49243.8716                STO-SY =           0.3443     STORAGE         
                 RCH =      288768.6184                   RCH =         238.3565     RCHA            
                 CHD =         400.5133                   CHD =           0.0000     CHD             

            TOTAL IN =      338489.9595              TOTAL IN =         238.7013

          OUT:                                     OUT:
          ----                                     ----
              STO-SS =          70.1144                STO-SS =       7.5428E-02     STORAGE         
              STO-SY =       45153.7019                STO-SY =          46.9064     STORAGE         
                 RCH =           0.0000                   RCH =           0.0000     RCHA            
                 CHD =      293268.4060                   CHD =         191.7216     CHD             

           TOTAL OUT =      338492.2223             TOTAL OUT =         238.7034

            IN - OUT =          -2.2628              IN - OUT =      -2.1936E-03

 PERCENT DISCREPANCY =          -0.00     PERCENT DISCREPANCY =          -0.00




         TIME SUMMARY AT END OF TIME STEP    6 IN STRESS PERIOD   60
                    SECONDS     MINUTES      HOURS       DAYS        YEARS
                    -----------------------------------------------------------
   TIME STEP LENGTH 2.59200E+05  4320.0      72.000      3.0000     8.21355E-03
 STRESS PERIOD TIME 1.55520E+06  25920.      432.00      18.000     4.92813E-02
         TOTAL TIME 1.51978E+08 2.53296E+06  42216.      1759.0      4.8159    
 UBDSV1 SAVING           STO-SS ON UNIT   1016 AT TIME STEP      7, STRESS PERIOD     60
 UBDSV1 SAVING           STO-SY ON UNIT   1016 AT TIME STEP      7, STRESS PERIOD     60
 UBDSV1 SAVING     FLOW-JA-FACE ON UNIT   1016 AT TIME STEP      7, STRESS PERIOD     60
 UBDSV06 SAVING              RCH IN MODEL TEST_TRANS       PACKAGE TEST_TRANS      CONNECTED TO MODEL TEST_TRANS       PACKAGE RCHA             ON UNIT   1016 AT TIME STEP      7, STRESS PERIOD     60
 UBDSV06 SAVING              CHD IN MODEL TEST_TRANS       PACKAGE TEST_TRANS      CONNECTED TO MODEL TEST_TRANS       PACKAGE CHD              ON UNIT   1016 AT TIME STEP      7, STRESS PERIOD     60

 HEAD WILL BE SAVED ON UNIT 1017 AT END OF TIME STEP    7, STRESS PERIOD   60


  VOLUME BUDGET FOR ENTIRE MODEL AT END OF TIME STEP    7, STRESS PERIOD  60
  ---------------------------------------------------------------------------------------------------

     CUMULATIVE VOLUME      L**3       RATES FOR THIS TIME STEP      L**3/T          PACKAGE NAME    
     ------------------                 ------------------------                     ----------------

           IN:                                      IN:
           ---                                      ---
              STO-SS =          76.9562                STO-SS =       9.0232E-06     STORAGE         
              STO-SY =       49243.8913                STO-SY =       6.5602E-03     STORAGE         
                 RCH =      289483.6879                   RCH =         238.3565     RCHA            
                 CHD =         400.5133                   CHD =           0.0000     CHD             

            TOTAL IN =      339205.0487              TOTAL IN =         238.3631

          OUT:                                     OUT:
          ----                                     ----
              STO-SS =          70.3390                STO-SS =       7.4863E-02     STORAGE         
              STO-SY =       45293.4650                STO-SY =          46.5877     STORAGE         
                 RCH =           0.0000                   RCH =           0.0000     RCHA            
                 CHD =      293843.5147                   CHD =         191.7029     CHD             

           TOTAL OUT =      339207.3187             TOTAL OUT =         238.3654

            IN - OUT =          -2.2700              IN - OUT =      -2.3699E-03

 PERCENT DISCREPANCY =          -0.00     PERCENT DISCREPANCY =          -0.00




         TIME SUMMARY AT END OF TIME STEP    7 IN STRESS PERIOD   60
                    SECONDS     MINUTES      HOURS       DAYS        YEARS
                    -----------------------------------------------------------
   TIME STEP LENGTH 2.59200E+05  4320.0      72.000      3.0000     8.21355E-03
 STRESS PERIOD TIME 1.81440E+06  30240.      504.00      21.000     5.74949E-02
         TOTAL TIME 1.52237E+08 2.53728E+06  42288.      1762.0      4.8241    
 UBDSV1 SAVING           STO-SS ON UNIT   1016 AT TIME STEP      8, STRESS PERIOD     60
 UBDSV1 SAVING           STO-SY ON UNIT   1016 AT TIME STEP      8, STRESS PERIOD     60
 UBDSV1 SAVING     FLOW-JA-FACE ON UNIT   1016 AT TIME STEP      8, STRESS PERIOD     60
 UBDSV06 SAVING              RCH IN MODEL TEST_TRANS       PACKAGE TEST_TRANS      CONNECTED TO MODEL TEST_TRANS       PACKAGE RCHA             ON UNIT   1016 AT TIME STEP      8, STRESS PERIOD     60
 UBDSV06 SAVING              CHD IN MODEL TEST_TRANS       PACKAGE TEST_TRANS      CONNECTED TO MODEL TEST_TRANS       PACKAGE CHD              ON UNIT   1016 AT TIME STEP      8, STRESS PERIOD     60

 HEAD WILL BE SAVED ON UNIT 1017 AT END OF TIME STEP    8, STRESS PERIOD   60


  VOLUME BUDGET FOR ENTIRE MODEL AT END OF TIME STEP    8, STRESS PERIOD  60
  ---------------------------------------------------------------------------------------------------

     CUMULATIVE VOLUME      L**3       RATES FOR THIS TIME STEP      L**3/T          PACKAGE NAME    
     ------------------                 ------------------------                     ----------------

           IN:                                      IN:
           ---                                      ---
              STO-SS =          76.9562                STO-SS =           0.0000     STORAGE         
              STO-SY =       49243.8913                STO-SY =           0.0000     STORAGE         
                 RCH =      290198.7575                   RCH =         238.3565     RCHA            
                 CHD =         400.5133                   CHD =           0.0000     CHD             

            TOTAL IN =      339920.1182              TOTAL IN =         238.3565

          OUT:                                     OUT:
          ----                                     ----
              STO-SS =          70.5626                STO-SS =       7.4531E-02     STORAGE         
              STO-SY =       45432.7546                STO-SY =          46.4299     STORAGE         
                 RCH =           0.0000                   RCH =           0.0000     RCHA            
                 CHD =      294419.1364                   CHD =         191.8739     CHD             

           TOTAL OUT =      339922.4536             TOTAL OUT =         238.3783

            IN - OUT =          -2.3354              IN - OUT =      -2.1812E-02

 PERCENT DISCREPANCY =          -0.00     PERCENT DISCREPANCY =          -0.01




         TIME SUMMARY AT END OF TIME STEP    8 IN STRESS PERIOD   60
                    SECONDS     MINUTES      HOURS       DAYS        YEARS
                    -----------------------------------------------------------
   TIME STEP LENGTH 2.59200E+05  4320.0      72.000      3.0000     8.21355E-03
 STRESS PERIOD TIME 2.07360E+06  34560.      576.00      24.000     6.57084E-02
         TOTAL TIME 1.52496E+08 2.54160E+06  42360.      1765.0      4.8323    
 UBDSV1 SAVING           STO-SS ON UNIT   1016 AT TIME STEP      9, STRESS PERIOD     60
 UBDSV1 SAVING           STO-SY ON UNIT   1016 AT TIME STEP      9, STRESS PERIOD     60
 UBDSV1 SAVING     FLOW-JA-FACE ON UNIT   1016 AT TIME STEP      9, STRESS PERIOD     60
 UBDSV06 SAVING              RCH IN MODEL TEST_TRANS       PACKAGE TEST_TRANS      CONNECTED TO MODEL TEST_TRANS       PACKAGE RCHA             ON UNIT   1016 AT TIME STEP      9, STRESS PERIOD     60
 UBDSV06 SAVING              CHD IN MODEL TEST_TRANS       PACKAGE TEST_TRANS      CONNECTED TO MODEL TEST_TRANS       PACKAGE CHD              ON UNIT   1016 AT TIME STEP      9, STRESS PERIOD     60

 HEAD WILL BE SAVED ON UNIT 1017 AT END OF TIME STEP    9, STRESS PERIOD   60


  VOLUME BUDGET FOR ENTIRE MODEL AT END OF TIME STEP    9, STRESS PERIOD  60
  ---------------------------------------------------------------------------------------------------

     CUMULATIVE VOLUME      L**3       RATES FOR THIS TIME STEP      L**3/T          PACKAGE NAME    
     ------------------                 ------------------------                     ----------------

           IN:                                      IN:
           ---                                      ---
              STO-SS =          76.9562                STO-SS =           0.0000     STORAGE         
              STO-SY =       49243.8913                STO-SY =           0.0000     STORAGE         
                 RCH =      290913.8270                   RCH =         238.3565     RCHA            
                 CHD =         400.5133                   CHD =           0.0000     CHD             

            TOTAL IN =      340635.1878              TOTAL IN =         238.3565

          OUT:                                     OUT:
          ----                                     ----
              STO-SS =          70.7846                STO-SS =       7.4006E-02     STORAGE         
              STO-SY =       45571.1592                STO-SY =          46.1348     STORAGE         
                 RCH =           0.0000                   RCH =           0.0000     RCHA            
                 CHD =      294995.6601                   CHD =         192.1746     CHD             

           TOTAL OUT =      340637.6039             TOTAL OUT =         238.3834

            IN - OUT =          -2.4161              IN - OUT =      -2.6913E-02

 PERCENT DISCREPANCY =          -0.00     PERCENT DISCREPANCY =          -0.01




         TIME SUMMARY AT END OF TIME STEP    9 IN STRESS PERIOD   60
                    SECONDS     MINUTES      HOURS       DAYS        YEARS
                    -----------------------------------------------------------
   TIME STEP LENGTH 2.59200E+05  4320.0      72.000      3.0000     8.21355E-03
 STRESS PERIOD TIME 2.33280E+06  38880.      648.00      27.000     7.39220E-02
         TOTAL TIME 1.52755E+08 2.54592E+06  42432.      1768.0      4.8405    
 UBDSV1 SAVING           STO-SS ON UNIT   1016 AT TIME STEP     10, STRESS PERIOD     60
 UBDSV1 SAVING           STO-SY ON UNIT   1016 AT TIME STEP     10, STRESS PERIOD     60
 UBDSV1 SAVING     FLOW-JA-FACE ON UNIT   1016 AT TIME STEP     10, STRESS PERIOD     60
 UBDSV06 SAVING              RCH IN MODEL TEST_TRANS       PACKAGE TEST_TRANS      CONNECTED TO MODEL TEST_TRANS       PACKAGE RCHA             ON UNIT   1016 AT TIME STEP     10, STRESS PERIOD     60
 UBDSV06 SAVING              CHD IN MODEL TEST_TRANS       PACKAGE TEST_TRANS      CONNECTED TO MODEL TEST_TRANS       PACKAGE CHD              ON UNIT   1016 AT TIME STEP     10, STRESS PERIOD     60

 HEAD WILL BE SAVED ON UNIT 1017 AT END OF TIME STEP   10, STRESS PERIOD   60


  VOLUME BUDGET FOR ENTIRE MODEL AT END OF TIME STEP   10, STRESS PERIOD  60
  ---------------------------------------------------------------------------------------------------

     CUMULATIVE VOLUME      L**3       RATES FOR THIS TIME STEP      L**3/T          PACKAGE NAME    
     ------------------                 ------------------------                     ----------------

           IN:                                      IN:
           ---                                      ---
              STO-SS =          76.9562                STO-SS =           0.0000     STORAGE         
              STO-SY =       49243.8913                STO-SY =           0.0000     STORAGE         
                 RCH =      291628.8965                   RCH =         238.3565     RCHA            
                 CHD =         400.5133                   CHD =           0.0000     CHD             

            TOTAL IN =      341350.2573              TOTAL IN =         238.3565

          OUT:                                     OUT:
          ----                                     ----
              STO-SS =          71.0047                STO-SS =       7.3358E-02     STORAGE         
              STO-SY =       45708.4125                STO-SY =          45.7511     STORAGE         
                 RCH =           0.0000                   RCH =           0.0000     RCHA            
                 CHD =      295573.3493                   CHD =         192.5631     CHD             

           TOTAL OUT =      341352.7665             TOTAL OUT =         238.3875

            IN - OUT =          -2.5092              IN - OUT =      -3.1026E-02

 PERCENT DISCREPANCY =          -0.00     PERCENT DISCREPANCY =          -0.01




         TIME SUMMARY AT END OF TIME STEP   10 IN STRESS PERIOD   60
                    SECONDS     MINUTES      HOURS       DAYS        YEARS
                    -----------------------------------------------------------
   TIME STEP LENGTH 2.59200E+05  4320.0      72.000      3.0000     8.21355E-03
 STRESS PERIOD TIME 2.59200E+06  43200.      720.00      30.000     8.21355E-02
         TOTAL TIME 1.53014E+08 2.55024E+06  42504.      1771.0      4.8487    
