                                   MODFLOW 6
                U.S. GEOLOGICAL SURVEY MODULAR HYDROLOGIC MODEL
                          GROUNDWATER FLOW MODEL (GWF)
                            VERSION 6.0.4 03/13/2019

   MODFLOW 6 compiled Mar 21 2019 15:37:31 with IFORT compiler (ver. 19.0.0)

This software has been approved for release by the U.S. Geological 
Survey (USGS). Although the software has been subjected to rigorous 
review, the USGS reserves the right to update the software as needed 
pursuant to further analysis and review. No warranty, expressed or 
implied, is made by the USGS or the U.S. Government as to the 
functionality of the software and related material nor shall the 
fact of release constitute any such warranty. Furthermore, the 
software is released on condition that neither the USGS nor the U.S. 
Government shall be held liable for any damages resulting from its 
authorized or unauthorized use. Also refer to the USGS Water 
Resources Software User Rights Notice for complete use, copyright, 
and distribution information.


MODFLOW was compiled using uniform precision.
Precision of REAL variables: 15


 OPENED test_trans.dis
 FILE TYPE:DIS6                   UNIT 1005   STATUS:OLD                 
 FORMAT:FORMATTED              ACCESS:SEQUENTIAL          
 ACTION:READ                


 OPENED test_trans.ic
 FILE TYPE:IC6                    UNIT 1006   STATUS:OLD                 
 FORMAT:FORMATTED              ACCESS:SEQUENTIAL          
 ACTION:READ                


 OPENED test_trans.npf
 FILE TYPE:NPF6                   UNIT 1007   STATUS:OLD                 
 FORMAT:FORMATTED              ACCESS:SEQUENTIAL          
 ACTION:READ                


 OPENED test_trans.oc
 FILE TYPE:OC6                    UNIT 1008   STATUS:OLD                 
 FORMAT:FORMATTED              ACCESS:SEQUENTIAL          
 ACTION:READ                


 OPENED test_trans.sto
 FILE TYPE:STO6                   UNIT 1009   STATUS:OLD                 
 FORMAT:FORMATTED              ACCESS:SEQUENTIAL          
 ACTION:READ                


 OPENED test_trans.rcha
 FILE TYPE:RCH6                   UNIT 1010   STATUS:OLD                 
 FORMAT:FORMATTED              ACCESS:SEQUENTIAL          
 ACTION:READ                


 OPENED test_trans.chd
 FILE TYPE:CHD6                   UNIT 1011   STATUS:OLD                 
 FORMAT:FORMATTED              ACCESS:SEQUENTIAL          
 ACTION:READ                


 OPENED test_trans.obs
 FILE TYPE:OBS6                   UNIT 1012   STATUS:OLD                 
 FORMAT:FORMATTED              ACCESS:SEQUENTIAL          
 ACTION:READ                

 NAMEFILE OPTIONS:
    FLOWS WILL BE SAVED TO BUDGET FILE SPECIFIED IN OUTPUT CONTROL

 DIS -- STRUCTURED GRID DISCRETIZATION PACKAGE, VERSION 2 : 3/27/2014 - INPUT READ FROM UNIT 1005


 PROCESSING DISCRETIZATION OPTIONS
 END OF DISCRETIZATION OPTIONS
 MODEL LENGTH UNIT IS UNDEFINED
 PROCESSING DISCRETIZATION DIMENSIONS
    NLAY =       1
    NROW =      30
    NCOL =      30
 END OF DISCRETIZATION DIMENSIONS
 PROCESSING GRIDDATA

                     DELR =   10.00000    

                     DELC =   10.00000    

 TOP ELEVATION OF LAYER 1 =   30.00000    

   MODEL LAYER BOTTOM EL. =   23.00000    

                  IDOMAIN = 1
 END PROCESSING GRIDDATA

 NPF -- NODE PROPERTY FLOW PACKAGE, VERSION 1, 3/30/2015 INPUT READ FROM UNIT 1007


 PROCESSING NPF OPTIONS
    CELL-BY-CELL FLOW INFORMATION WILL BE SAVED TO BINARY FILE WHENEVER ICBCFL IS NOT ZERO.
 END OF NPF OPTIONS

 RCH   -- RCH PACKAGE, VERSION 8, 2/22/2014 INPUT READ FROM UNIT 1010

 PROCESSING RCH OPTIONS
    RECHARGE INPUT WILL BE READ AS ARRAY(S).
 END OF RCH OPTIONS

 CHD   -- CHD PACKAGE, VERSION 8, 2/22/2014 INPUT READ FROM UNIT 1011

 PROCESSING CHD OPTIONS
 END OF CHD OPTIONS

 PROCESSING CHD DIMENSIONS
    MAXBOUND =      30
 END OF CHD DIMENSIONS

 IC -- INITIAL CONDITIONS PACKAGE, VERSION 8, 3/28/2015 INPUT READ FROM UNIT 1006
 PROCESSING GRIDDATA

     INITIAL HEAD =   25.00000    
 END PROCESSING GRIDDATA
 PROCESSING GRIDDATA

                ICELLTYPE = 1

                        K =   8.640000    
 K33 not provided.  Assuming K33 = K.
 K22 not provided.  Assuming K22 = K.
 END PROCESSING GRIDDATA

 STO -- STORAGE PACKAGE, VERSION 1, 5/19/2014 INPUT READ FROM UNIT 1009


 PROCESSING STORAGE OPTIONS
    CELL-BY-CELL FLOW INFORMATION WILL BE SAVED TO BINARY FILE WHENEVER ICBCFL IS NOT ZERO.
 END OF STORAGE OPTIONS
 PROCESSING GRIDDATA

                 ICONVERT = 1

         SPECIFIC STORAGE =  0.1000000E-04

           SPECIFIC YIELD =  0.2000000    
 END PROCESSING GRIDDATA

The observation utility is active for "TEST_TRANS"

Processing observation options:

Text output number of digits of precision set to: 10
The PRINT_INPUT option has been specified.


Observations read from file "test_trans.obs":
Name                                      Type                             Time         Location data
----------------------------------------  -------------------------------  -----------  --------------------------
COL 5                                     Continuous HEAD                  All times    "1 16 6"
COL 10                                    Continuous HEAD                  All times    "1 16 11"
COL 20                                    Continuous HEAD                  All times    "1 16 21"
    BINARY GRID INFORMATION WILL BE WRITTEN TO:
      UNIT NUMBER: 1015
      FILE NAME: C:\Users\emmal\Documents\GitHub\TM_Ludovic_Schorpp\codes_tests\notebooks_essais\transitoire\workspace\test_trans.dis.grb

 OPENED C:\Users\emmal\Documents\GitHub\TM_Ludovic_Schorpp\codes_tests\notebooks_essais\transitoire\workspace\test_trans.dis.grb
 FILE TYPE:DATA(BINARY)   UNIT 1015   STATUS:REPLACE             
 FORMAT:UNFORMATTED            ACCESS:STREAM              
 ACTION:READWRITE           

      THE LAST TIME STEP WILL BE PRINTED
      THE LAST TIME STEP WILL BE PRINTED
 PROCESSING OC OPTIONS
    BUDGET INFORMATION WILL BE WRITTEN TO:
      UNIT NUMBER: 1016
      FILE NAME: test_trans.cbb

 OPENED test_trans.cbb
 FILE TYPE:DATA(BINARY)   UNIT 1016   STATUS:REPLACE             
 FORMAT:UNFORMATTED            ACCESS:STREAM              
 ACTION:READWRITE           

    HEAD INFORMATION WILL BE WRITTEN TO:
      UNIT NUMBER: 1017
      FILE NAME: test_trans.hds

 OPENED test_trans.hds
 FILE TYPE:DATA(BINARY)   UNIT 1017   STATUS:REPLACE             
 FORMAT:UNFORMATTED            ACCESS:STREAM              
 ACTION:READWRITE           

 END OF OC OPTIONS

 BEGIN READING OUTPUT CONTROL FOR STRESS PERIOD 1
      ALL TIME STEPS WILL BE SAVED
      ALL TIME STEPS WILL BE SAVED
      THE FIRST TIME STEP WILL BE PRINTED
      THE LAST TIME STEP WILL BE PRINTED
      THE LAST TIME STEP WILL BE PRINTED

 END READING OUTPUT CONTROL FOR STRESS PERIOD 1


 UPDATING STORAGE VALUES
 END UPDATING STORAGE VALUES


 STRESS PERIOD 1 IS STEADY-STATE


                 RECHARGE =  0.2739730E-02
 UBDSV1 SAVING           STO-SS ON UNIT   1016 AT TIME STEP      1, STRESS PERIOD      1
 UBDSV1 SAVING           STO-SY ON UNIT   1016 AT TIME STEP      1, STRESS PERIOD      1
 UBDSV1 SAVING     FLOW-JA-FACE ON UNIT   1016 AT TIME STEP      1, STRESS PERIOD      1
 UBDSV06 SAVING              RCH IN MODEL TEST_TRANS       PACKAGE TEST_TRANS      CONNECTED TO MODEL TEST_TRANS       PACKAGE RCHA             ON UNIT   1016 AT TIME STEP      1, STRESS PERIOD      1
 UBDSV06 SAVING              CHD IN MODEL TEST_TRANS       PACKAGE TEST_TRANS      CONNECTED TO MODEL TEST_TRANS       PACKAGE CHD              ON UNIT   1016 AT TIME STEP      1, STRESS PERIOD      1
1
  HEAD IN LAYER   1 AT END OF TIME STEP   1 IN STRESS PERIOD    1
  ---------------------------------------------------------------------------

            1           2           3           4           5           6           7           8           9          10
           11          12          13          14          15          16          17          18          19          20
           21          22          23          24          25          26          27          28          29          30
 ........................................................................................................................
   1    28.43       28.42       28.41       28.39       28.37       28.34       28.30       28.26       28.21       28.16    
        28.09       28.03       27.95       27.86       27.77       27.67       27.56       27.44       27.31       27.17    
        27.01       26.85       26.66       26.45       26.23       25.97       25.68       25.33       24.91       24.32    
   2    28.43       28.42       28.41       28.39       28.37       28.34       28.30       28.26       28.21       28.16    
        28.09       28.03       27.95       27.86       27.77       27.67       27.56       27.44       27.31       27.17    
        27.01       26.85       26.66       26.45       26.23       25.97       25.68       25.33       24.91       24.32    
   3    28.43       28.42       28.41       28.39       28.37       28.34       28.30       28.26       28.21       28.16    
        28.09       28.03       27.95       27.86       27.77       27.67       27.56       27.44       27.31       27.17    
        27.01       26.85       26.66       26.45       26.23       25.97       25.68       25.33       24.91       24.32    
   4    28.43       28.42       28.41       28.39       28.37       28.34       28.30       28.26       28.21       28.16    
        28.09       28.03       27.95       27.86       27.77       27.67       27.56       27.44       27.31       27.17    
        27.01       26.85       26.66       26.45       26.23       25.97       25.68       25.33       24.91       24.32    
   5    28.43       28.42       28.41       28.39       28.37       28.34       28.30       28.26       28.21       28.16    
        28.09       28.03       27.95       27.86       27.77       27.67       27.56       27.44       27.31       27.17    
        27.01       26.85       26.66       26.45       26.23       25.97       25.68       25.33       24.91       24.32    
   6    28.43       28.42       28.41       28.39       28.37       28.34       28.30       28.26       28.21       28.16    
        28.09       28.03       27.95       27.86       27.77       27.67       27.56       27.44       27.31       27.17    
        27.01       26.85       26.66       26.45       26.23       25.97       25.68       25.33       24.91       24.32    
   7    28.43       28.42       28.41       28.39       28.37       28.34       28.30       28.26       28.21       28.16    
        28.09       28.03       27.95       27.86       27.77       27.67       27.56       27.44       27.31       27.17    
        27.01       26.85       26.66       26.45       26.23       25.97       25.68       25.33       24.91       24.32    
   8    28.43       28.42       28.41       28.39       28.37       28.34       28.30       28.26       28.21       28.16    
        28.09       28.03       27.95       27.86       27.77       27.67       27.56       27.44       27.31       27.17    
        27.01       26.85       26.66       26.45       26.23       25.97       25.68       25.33       24.91       24.32    
   9    28.43       28.42       28.41       28.39       28.37       28.34       28.30       28.26       28.21       28.16    
        28.09       28.03       27.95       27.86       27.77       27.67       27.56       27.44       27.31       27.17    
        27.01       26.85       26.66       26.45       26.23       25.97       25.68       25.33       24.91       24.32    
  10    28.43       28.42       28.41       28.39       28.37       28.34       28.30       28.26       28.21       28.16    
        28.09       28.03       27.95       27.86       27.77       27.67       27.56       27.44       27.31       27.17    
        27.01       26.85       26.66       26.45       26.23       25.97       25.68       25.33       24.91       24.32    
  11    28.43       28.42       28.41       28.39       28.37       28.34       28.30       28.26       28.21       28.16    
        28.09       28.03       27.95       27.86       27.77       27.67       27.56       27.44       27.31       27.17    
        27.01       26.85       26.66       26.45       26.23       25.97       25.68       25.33       24.91       24.32    
  12    28.43       28.42       28.41       28.39       28.37       28.34       28.30       28.26       28.21       28.16    
        28.09       28.03       27.95       27.86       27.77       27.67       27.56       27.44       27.31       27.17    
        27.01       26.85       26.66       26.45       26.23       25.97       25.68       25.33       24.91       24.32    
  13    28.43       28.42       28.41       28.39       28.37       28.34       28.30       28.26       28.21       28.16    
        28.09       28.03       27.95       27.86       27.77       27.67       27.56       27.44       27.31       27.17    
        27.01       26.85       26.66       26.45       26.23       25.97       25.68       25.33       24.91       24.32    
  14    28.43       28.42       28.41       28.39       28.37       28.34       28.30       28.26       28.21       28.16    
        28.09       28.03       27.95       27.86       27.77       27.67       27.56       27.44       27.31       27.17    
        27.01       26.85       26.66       26.45       26.23       25.97       25.68       25.33       24.91       24.32    
  15    28.43       28.42       28.41       28.39       28.37       28.34       28.30       28.26       28.21       28.16    
        28.09       28.03       27.95       27.86       27.77       27.67       27.56       27.44       27.31       27.17    
        27.01       26.85       26.66       26.45       26.23       25.97       25.68       25.33       24.91       24.32    
  16    28.43       28.42       28.41       28.39       28.37       28.34       28.30       28.26       28.21       28.16    
        28.09       28.03       27.95       27.86       27.77       27.67       27.56       27.44       27.31       27.17    
        27.01       26.85       26.66       26.45       26.23       25.97       25.68       25.33       24.91       24.32    
  17    28.43       28.42       28.41       28.39       28.37       28.34       28.30       28.26       28.21       28.16    
        28.09       28.03       27.95       27.86       27.77       27.67       27.56       27.44       27.31       27.17    
        27.01       26.85       26.66       26.45       26.23       25.97       25.68       25.33       24.91       24.32    
  18    28.43       28.42       28.41       28.39       28.37       28.34       28.30       28.26       28.21       28.16    
        28.09       28.03       27.95       27.86       27.77       27.67       27.56       27.44       27.31       27.17    
        27.01       26.85       26.66       26.45       26.23       25.97       25.68       25.33       24.91       24.32    
  19    28.43       28.42       28.41       28.39       28.37       28.34       28.30       28.26       28.21       28.16    
        28.09       28.03       27.95       27.86       27.77       27.67       27.56       27.44       27.31       27.17    
        27.01       26.85       26.66       26.45       26.23       25.97       25.68       25.33       24.91       24.32    
  20    28.43       28.42       28.41       28.39       28.37       28.34       28.30       28.26       28.21       28.16    
        28.09       28.03       27.95       27.86       27.77       27.67       27.56       27.44       27.31       27.17    
        27.01       26.85       26.66       26.45       26.23       25.97       25.68       25.33       24.91       24.32    
  21    28.43       28.42       28.41       28.39       28.37       28.34       28.30       28.26       28.21       28.16    
        28.09       28.03       27.95       27.86       27.77       27.67       27.56       27.44       27.31       27.17    
        27.01       26.85       26.66       26.45       26.23       25.97       25.68       25.33       24.91       24.32    
  22    28.43       28.42       28.41       28.39       28.37       28.34       28.30       28.26       28.21       28.16    
        28.09       28.03       27.95       27.86       27.77       27.67       27.56       27.44       27.31       27.17    
        27.01       26.85       26.66       26.45       26.23       25.97       25.68       25.33       24.91       24.32    
  23    28.43       28.42       28.41       28.39       28.37       28.34       28.30       28.26       28.21       28.16    
        28.09       28.03       27.95       27.86       27.77       27.67       27.56       27.44       27.31       27.17    
        27.01       26.85       26.66       26.45       26.23       25.97       25.68       25.33       24.91       24.32    
  24    28.43       28.42       28.41       28.39       28.37       28.34       28.30       28.26       28.21       28.16    
        28.09       28.03       27.95       27.86       27.77       27.67       27.56       27.44       27.31       27.17    
        27.01       26.85       26.66       26.45       26.23       25.97       25.68       25.33       24.91       24.32    
  25    28.43       28.42       28.41       28.39       28.37       28.34       28.30       28.26       28.21       28.16    
        28.09       28.03       27.95       27.86       27.77       27.67       27.56       27.44       27.31       27.17    
        27.01       26.85       26.66       26.45       26.23       25.97       25.68       25.33       24.91       24.32    
  26    28.43       28.42       28.41       28.39       28.37       28.34       28.30       28.26       28.21       28.16    
        28.09       28.03       27.95       27.86       27.77       27.67       27.56       27.44       27.31       27.17    
        27.01       26.85       26.66       26.45       26.23       25.97       25.68       25.33       24.91       24.32    
  27    28.43       28.42       28.41       28.39       28.37       28.34       28.30       28.26       28.21       28.16    
        28.09       28.03       27.95       27.86       27.77       27.67       27.56       27.44       27.31       27.17    
        27.01       26.85       26.66       26.45       26.23       25.97       25.68       25.33       24.91       24.32    
  28    28.43       28.42       28.41       28.39       28.37       28.34       28.30       28.26       28.21       28.16    
        28.09       28.03       27.95       27.86       27.77       27.67       27.56       27.44       27.31       27.17    
        27.01       26.85       26.66       26.45       26.23       25.97       25.68       25.33       24.91       24.32    
  29    28.43       28.42       28.41       28.39       28.37       28.34       28.30       28.26       28.21       28.16    
        28.09       28.03       27.95       27.86       27.77       27.67       27.56       27.44       27.31       27.17    
        27.01       26.85       26.66       26.45       26.23       25.97       25.68       25.33       24.91       24.32    
  30    28.43       28.42       28.41       28.39       28.37       28.34       28.30       28.26       28.21       28.16    
        28.09       28.03       27.95       27.86       27.77       27.67       27.56       27.44       27.31       27.17    
        27.01       26.85       26.66       26.45       26.23       25.97       25.68       25.33       24.91       24.32    

 HEAD WILL BE SAVED ON UNIT 1017 AT END OF TIME STEP    1, STRESS PERIOD    1


  VOLUME BUDGET FOR ENTIRE MODEL AT END OF TIME STEP    1, STRESS PERIOD   1
  ---------------------------------------------------------------------------------------------------

     CUMULATIVE VOLUME      L**3       RATES FOR THIS TIME STEP      L**3/T          PACKAGE NAME    
     ------------------                 ------------------------                     ----------------

           IN:                                      IN:
           ---                                      ---
              STO-SS =           0.0000                STO-SS =           0.0000     STORAGE         
              STO-SY =           0.0000                STO-SY =           0.0000     STORAGE         
                 RCH =         238.3565                   RCH =         238.3565     RCHA            
                 CHD =           0.0000                   CHD =           0.0000     CHD             

            TOTAL IN =         238.3565              TOTAL IN =         238.3565

          OUT:                                     OUT:
          ----                                     ----
              STO-SS =           0.0000                STO-SS =           0.0000     STORAGE         
              STO-SY =           0.0000                STO-SY =           0.0000     STORAGE         
                 RCH =           0.0000                   RCH =           0.0000     RCHA            
                 CHD =         238.3477                   CHD =         238.3477     CHD             

           TOTAL OUT =         238.3477             TOTAL OUT =         238.3477

            IN - OUT =       8.8215E-03              IN - OUT =       8.8215E-03

 PERCENT DISCREPANCY =           0.00     PERCENT DISCREPANCY =           0.00




         TIME SUMMARY AT END OF TIME STEP    1 IN STRESS PERIOD    1
                    SECONDS     MINUTES      HOURS       DAYS        YEARS
                    -----------------------------------------------------------
   TIME STEP LENGTH  86400.      1440.0      24.000      1.0000     2.73785E-03
 STRESS PERIOD TIME  86400.      1440.0      24.000      1.0000     2.73785E-03
         TOTAL TIME  86400.      1440.0      24.000      1.0000     2.73785E-03

 END OF FILE DETECTED IN OUTPUT CONTROL.
 CURRENT OUTPUT CONTROL SETTINGS WILL BE 
 REPEATED UNTIL THE END OF THE SIMULATION.

 OUTPUT CONTROL FOR STRESS PERIOD 2 IS REPEATED USING SETTINGS FROM A PREVIOUS STRESS PERIOD.


 UPDATING STORAGE VALUES
 END UPDATING STORAGE VALUES


 STRESS PERIOD 2 IS TRANSIENT


                 RECHARGE =  0.3287670E-02
 UBDSV1 SAVING           STO-SS ON UNIT   1016 AT TIME STEP      1, STRESS PERIOD      2
 UBDSV1 SAVING           STO-SY ON UNIT   1016 AT TIME STEP      1, STRESS PERIOD      2
 UBDSV1 SAVING     FLOW-JA-FACE ON UNIT   1016 AT TIME STEP      1, STRESS PERIOD      2
 UBDSV06 SAVING              RCH IN MODEL TEST_TRANS       PACKAGE TEST_TRANS      CONNECTED TO MODEL TEST_TRANS       PACKAGE RCHA             ON UNIT   1016 AT TIME STEP      1, STRESS PERIOD      2
 UBDSV06 SAVING              CHD IN MODEL TEST_TRANS       PACKAGE TEST_TRANS      CONNECTED TO MODEL TEST_TRANS       PACKAGE CHD              ON UNIT   1016 AT TIME STEP      1, STRESS PERIOD      2
1
  HEAD IN LAYER   1 AT END OF TIME STEP   1 IN STRESS PERIOD    2
  ---------------------------------------------------------------------------

            1           2           3           4           5           6           7           8           9          10
           11          12          13          14          15          16          17          18          19          20
           21          22          23          24          25          26          27          28          29          30
 ........................................................................................................................
   1    28.43       28.43       28.42       28.40       28.38       28.35       28.31       28.27       28.22       28.16    
        28.10       28.03       27.96       27.87       27.78       27.68       27.57       27.45       27.32       27.18    
        27.02       26.85       26.67       26.46       26.24       25.99       25.70       25.37       24.98       24.49    
   2    28.43       28.43       28.42       28.40       28.38       28.35       28.31       28.27       28.22       28.16    
        28.10       28.03       27.96       27.87       27.78       27.68       27.57       27.45       27.32       27.18    
        27.02       26.85       26.67       26.46       26.24       25.99       25.70       25.37       24.98       24.49    
   3    28.43       28.43       28.42       28.40       28.38       28.35       28.31       28.27       28.22       28.16    
        28.10       28.03       27.96       27.87       27.78       27.68       27.57       27.45       27.32       27.18    
        27.02       26.85       26.67       26.46       26.24       25.99       25.70       25.37       24.98       24.49    
   4    28.43       28.43       28.42       28.40       28.38       28.35       28.31       28.27       28.22       28.16    
        28.10       28.03       27.96       27.87       27.78       27.68       27.57       27.45       27.32       27.18    
        27.02       26.85       26.67       26.46       26.24       25.99       25.70       25.37       24.98       24.49    
   5    28.43       28.43       28.42       28.40       28.38       28.35       28.31       28.27       28.22       28.16    
        28.10       28.03       27.96       27.87       27.78       27.68       27.57       27.45       27.32       27.18    
        27.02       26.85       26.67       26.46       26.24       25.99       25.70       25.37       24.98       24.49    
   6    28.43       28.43       28.42       28.40       28.38       28.35       28.31       28.27       28.22       28.16    
        28.10       28.03       27.96       27.87       27.78       27.68       27.57       27.45       27.32       27.18    
        27.02       26.85       26.67       26.46       26.24       25.99       25.70       25.37       24.98       24.49    
   7    28.43       28.43       28.42       28.40       28.38       28.35       28.31       28.27       28.22       28.16    
        28.10       28.03       27.96       27.87       27.78       27.68       27.57       27.45       27.32       27.18    
        27.02       26.85       26.67       26.46       26.24       25.99       25.70       25.37       24.98       24.49    
   8    28.43       28.43       28.42       28.40       28.38       28.35       28.31       28.27       28.22       28.16    
        28.10       28.03       27.96       27.87       27.78       27.68       27.57       27.45       27.32       27.18    
        27.02       26.85       26.67       26.46       26.24       25.99       25.70       25.37       24.98       24.49    
   9    28.43       28.43       28.42       28.40       28.38       28.35       28.31       28.27       28.22       28.16    
        28.10       28.03       27.96       27.87       27.78       27.68       27.57       27.45       27.32       27.18    
        27.02       26.85       26.67       26.46       26.24       25.99       25.70       25.37       24.98       24.49    
  10    28.43       28.43       28.42       28.40       28.38       28.35       28.31       28.27       28.22       28.16    
        28.10       28.03       27.96       27.87       27.78       27.68       27.57       27.45       27.32       27.18    
        27.02       26.85       26.67       26.46       26.24       25.99       25.70       25.37       24.98       24.49    
  11    28.43       28.43       28.42       28.40       28.38       28.35       28.31       28.27       28.22       28.16    
        28.10       28.03       27.96       27.87       27.78       27.68       27.57       27.45       27.32       27.18    
        27.02       26.85       26.67       26.46       26.24       25.99       25.70       25.37       24.98       24.49    
  12    28.43       28.43       28.42       28.40       28.38       28.35       28.31       28.27       28.22       28.16    
        28.10       28.03       27.96       27.87       27.78       27.68       27.57       27.45       27.32       27.18    
        27.02       26.85       26.67       26.46       26.24       25.99       25.70       25.37       24.98       24.49    
  13    28.43       28.43       28.42       28.40       28.38       28.35       28.31       28.27       28.22       28.16    
        28.10       28.03       27.96       27.87       27.78       27.68       27.57       27.45       27.32       27.18    
        27.02       26.85       26.67       26.46       26.24       25.99       25.70       25.37       24.98       24.49    
  14    28.43       28.43       28.42       28.40       28.38       28.35       28.31       28.27       28.22       28.16    
        28.10       28.03       27.96       27.87       27.78       27.68       27.57       27.45       27.32       27.18    
        27.02       26.85       26.67       26.46       26.24       25.99       25.70       25.37       24.98       24.49    
  15    28.43       28.43       28.42       28.40       28.38       28.35       28.31       28.27       28.22       28.16    
        28.10       28.03       27.96       27.87       27.78       27.68       27.57       27.45       27.32       27.18    
        27.02       26.85       26.67       26.46       26.24       25.99       25.70       25.37       24.98       24.49    
  16    28.43       28.43       28.42       28.40       28.38       28.35       28.31       28.27       28.22       28.16    
        28.10       28.03       27.96       27.87       27.78       27.68       27.57       27.45       27.32       27.18    
        27.02       26.85       26.67       26.46       26.24       25.99       25.70       25.37       24.98       24.49    
  17    28.43       28.43       28.42       28.40       28.38       28.35       28.31       28.27       28.22       28.16    
        28.10       28.03       27.96       27.87       27.78       27.68       27.57       27.45       27.32       27.18    
        27.02       26.85       26.67       26.46       26.24       25.99       25.70       25.37       24.98       24.49    
  18    28.43       28.43       28.42       28.40       28.38       28.35       28.31       28.27       28.22       28.16    
        28.10       28.03       27.96       27.87       27.78       27.68       27.57       27.45       27.32       27.18    
        27.02       26.85       26.67       26.46       26.24       25.99       25.70       25.37       24.98       24.49    
  19    28.43       28.43       28.42       28.40       28.38       28.35       28.31       28.27       28.22       28.16    
        28.10       28.03       27.96       27.87       27.78       27.68       27.57       27.45       27.32       27.18    
        27.02       26.85       26.67       26.46       26.24       25.99       25.70       25.37       24.98       24.49    
  20    28.43       28.43       28.42       28.40       28.38       28.35       28.31       28.27       28.22       28.16    
        28.10       28.03       27.96       27.87       27.78       27.68       27.57       27.45       27.32       27.18    
        27.02       26.85       26.67       26.46       26.24       25.99       25.70       25.37       24.98       24.49    
  21    28.43       28.43       28.42       28.40       28.38       28.35       28.31       28.27       28.22       28.16    
        28.10       28.03       27.96       27.87       27.78       27.68       27.57       27.45       27.32       27.18    
        27.02       26.85       26.67       26.46       26.24       25.99       25.70       25.37       24.98       24.49    
  22    28.43       28.43       28.42       28.40       28.38       28.35       28.31       28.27       28.22       28.16    
        28.10       28.03       27.96       27.87       27.78       27.68       27.57       27.45       27.32       27.18    
        27.02       26.85       26.67       26.46       26.24       25.99       25.70       25.37       24.98       24.49    
  23    28.43       28.43       28.42       28.40       28.38       28.35       28.31       28.27       28.22       28.16    
        28.10       28.03       27.96       27.87       27.78       27.68       27.57       27.45       27.32       27.18    
        27.02       26.85       26.67       26.46       26.24       25.99       25.70       25.37       24.98       24.49    
  24    28.43       28.43       28.42       28.40       28.38       28.35       28.31       28.27       28.22       28.16    
        28.10       28.03       27.96       27.87       27.78       27.68       27.57       27.45       27.32       27.18    
        27.02       26.85       26.67       26.46       26.24       25.99       25.70       25.37       24.98       24.49    
  25    28.43       28.43       28.42       28.40       28.38       28.35       28.31       28.27       28.22       28.16    
        28.10       28.03       27.96       27.87       27.78       27.68       27.57       27.45       27.32       27.18    
        27.02       26.85       26.67       26.46       26.24       25.99       25.70       25.37       24.98       24.49    
  26    28.43       28.43       28.42       28.40       28.38       28.35       28.31       28.27       28.22       28.16    
        28.10       28.03       27.96       27.87       27.78       27.68       27.57       27.45       27.32       27.18    
        27.02       26.85       26.67       26.46       26.24       25.99       25.70       25.37       24.98       24.49    
  27    28.43       28.43       28.42       28.40       28.38       28.35       28.31       28.27       28.22       28.16    
        28.10       28.03       27.96       27.87       27.78       27.68       27.57       27.45       27.32       27.18    
        27.02       26.85       26.67       26.46       26.24       25.99       25.70       25.37       24.98       24.49    
  28    28.43       28.43       28.42       28.40       28.38       28.35       28.31       28.27       28.22       28.16    
        28.10       28.03       27.96       27.87       27.78       27.68       27.57       27.45       27.32       27.18    
        27.02       26.85       26.67       26.46       26.24       25.99       25.70       25.37       24.98       24.49    
  29    28.43       28.43       28.42       28.40       28.38       28.35       28.31       28.27       28.22       28.16    
        28.10       28.03       27.96       27.87       27.78       27.68       27.57       27.45       27.32       27.18    
        27.02       26.85       26.67       26.46       26.24       25.99       25.70       25.37       24.98       24.49    
  30    28.43       28.43       28.42       28.40       28.38       28.35       28.31       28.27       28.22       28.16    
        28.10       28.03       27.96       27.87       27.78       27.68       27.57       27.45       27.32       27.18    
        27.02       26.85       26.67       26.46       26.24       25.99       25.70       25.37       24.98       24.49    

 HEAD WILL BE SAVED ON UNIT 1017 AT END OF TIME STEP    1, STRESS PERIOD    2



         TIME SUMMARY AT END OF TIME STEP    1 IN STRESS PERIOD    2
                    SECONDS     MINUTES      HOURS       DAYS        YEARS
                    -----------------------------------------------------------
   TIME STEP LENGTH 2.59200E+05  4320.0      72.000      3.0000     8.21355E-03
 STRESS PERIOD TIME 2.59200E+05  4320.0      72.000      3.0000     8.21355E-03
         TOTAL TIME 3.45600E+05  5760.0      96.000      4.0000     1.09514E-02
 UBDSV1 SAVING           STO-SS ON UNIT   1016 AT TIME STEP      2, STRESS PERIOD      2
 UBDSV1 SAVING           STO-SY ON UNIT   1016 AT TIME STEP      2, STRESS PERIOD      2
 UBDSV1 SAVING     FLOW-JA-FACE ON UNIT   1016 AT TIME STEP      2, STRESS PERIOD      2
 UBDSV06 SAVING              RCH IN MODEL TEST_TRANS       PACKAGE TEST_TRANS      CONNECTED TO MODEL TEST_TRANS       PACKAGE RCHA             ON UNIT   1016 AT TIME STEP      2, STRESS PERIOD      2
 UBDSV06 SAVING              CHD IN MODEL TEST_TRANS       PACKAGE TEST_TRANS      CONNECTED TO MODEL TEST_TRANS       PACKAGE CHD              ON UNIT   1016 AT TIME STEP      2, STRESS PERIOD      2

 HEAD WILL BE SAVED ON UNIT 1017 AT END OF TIME STEP    2, STRESS PERIOD    2
 UBDSV1 SAVING           STO-SS ON UNIT   1016 AT TIME STEP      3, STRESS PERIOD      2
 UBDSV1 SAVING           STO-SY ON UNIT   1016 AT TIME STEP      3, STRESS PERIOD      2
 UBDSV1 SAVING     FLOW-JA-FACE ON UNIT   1016 AT TIME STEP      3, STRESS PERIOD      2
 UBDSV06 SAVING              RCH IN MODEL TEST_TRANS       PACKAGE TEST_TRANS      CONNECTED TO MODEL TEST_TRANS       PACKAGE RCHA             ON UNIT   1016 AT TIME STEP      3, STRESS PERIOD      2
 UBDSV06 SAVING              CHD IN MODEL TEST_TRANS       PACKAGE TEST_TRANS      CONNECTED TO MODEL TEST_TRANS       PACKAGE CHD              ON UNIT   1016 AT TIME STEP      3, STRESS PERIOD      2

 HEAD WILL BE SAVED ON UNIT 1017 AT END OF TIME STEP    3, STRESS PERIOD    2
 UBDSV1 SAVING           STO-SS ON UNIT   1016 AT TIME STEP      4, STRESS PERIOD      2
 UBDSV1 SAVING           STO-SY ON UNIT   1016 AT TIME STEP      4, STRESS PERIOD      2
 UBDSV1 SAVING     FLOW-JA-FACE ON UNIT   1016 AT TIME STEP      4, STRESS PERIOD      2
 UBDSV06 SAVING              RCH IN MODEL TEST_TRANS       PACKAGE TEST_TRANS      CONNECTED TO MODEL TEST_TRANS       PACKAGE RCHA             ON UNIT   1016 AT TIME STEP      4, STRESS PERIOD      2
 UBDSV06 SAVING              CHD IN MODEL TEST_TRANS       PACKAGE TEST_TRANS      CONNECTED TO MODEL TEST_TRANS       PACKAGE CHD              ON UNIT   1016 AT TIME STEP      4, STRESS PERIOD      2

 HEAD WILL BE SAVED ON UNIT 1017 AT END OF TIME STEP    4, STRESS PERIOD    2
 UBDSV1 SAVING           STO-SS ON UNIT   1016 AT TIME STEP      5, STRESS PERIOD      2
 UBDSV1 SAVING           STO-SY ON UNIT   1016 AT TIME STEP      5, STRESS PERIOD      2
 UBDSV1 SAVING     FLOW-JA-FACE ON UNIT   1016 AT TIME STEP      5, STRESS PERIOD      2
 UBDSV06 SAVING              RCH IN MODEL TEST_TRANS       PACKAGE TEST_TRANS      CONNECTED TO MODEL TEST_TRANS       PACKAGE RCHA             ON UNIT   1016 AT TIME STEP      5, STRESS PERIOD      2
 UBDSV06 SAVING              CHD IN MODEL TEST_TRANS       PACKAGE TEST_TRANS      CONNECTED TO MODEL TEST_TRANS       PACKAGE CHD              ON UNIT   1016 AT TIME STEP      5, STRESS PERIOD      2

 HEAD WILL BE SAVED ON UNIT 1017 AT END OF TIME STEP    5, STRESS PERIOD    2
 UBDSV1 SAVING           STO-SS ON UNIT   1016 AT TIME STEP      6, STRESS PERIOD      2
 UBDSV1 SAVING           STO-SY ON UNIT   1016 AT TIME STEP      6, STRESS PERIOD      2
 UBDSV1 SAVING     FLOW-JA-FACE ON UNIT   1016 AT TIME STEP      6, STRESS PERIOD      2
 UBDSV06 SAVING              RCH IN MODEL TEST_TRANS       PACKAGE TEST_TRANS      CONNECTED TO MODEL TEST_TRANS       PACKAGE RCHA             ON UNIT   1016 AT TIME STEP      6, STRESS PERIOD      2
 UBDSV06 SAVING              CHD IN MODEL TEST_TRANS       PACKAGE TEST_TRANS      CONNECTED TO MODEL TEST_TRANS       PACKAGE CHD              ON UNIT   1016 AT TIME STEP      6, STRESS PERIOD      2

 HEAD WILL BE SAVED ON UNIT 1017 AT END OF TIME STEP    6, STRESS PERIOD    2
 UBDSV1 SAVING           STO-SS ON UNIT   1016 AT TIME STEP      7, STRESS PERIOD      2
 UBDSV1 SAVING           STO-SY ON UNIT   1016 AT TIME STEP      7, STRESS PERIOD      2
 UBDSV1 SAVING     FLOW-JA-FACE ON UNIT   1016 AT TIME STEP      7, STRESS PERIOD      2
 UBDSV06 SAVING              RCH IN MODEL TEST_TRANS       PACKAGE TEST_TRANS      CONNECTED TO MODEL TEST_TRANS       PACKAGE RCHA             ON UNIT   1016 AT TIME STEP      7, STRESS PERIOD      2
 UBDSV06 SAVING              CHD IN MODEL TEST_TRANS       PACKAGE TEST_TRANS      CONNECTED TO MODEL TEST_TRANS       PACKAGE CHD              ON UNIT   1016 AT TIME STEP      7, STRESS PERIOD      2

 HEAD WILL BE SAVED ON UNIT 1017 AT END OF TIME STEP    7, STRESS PERIOD    2
 UBDSV1 SAVING           STO-SS ON UNIT   1016 AT TIME STEP      8, STRESS PERIOD      2
 UBDSV1 SAVING           STO-SY ON UNIT   1016 AT TIME STEP      8, STRESS PERIOD      2
 UBDSV1 SAVING     FLOW-JA-FACE ON UNIT   1016 AT TIME STEP      8, STRESS PERIOD      2
 UBDSV06 SAVING              RCH IN MODEL TEST_TRANS       PACKAGE TEST_TRANS      CONNECTED TO MODEL TEST_TRANS       PACKAGE RCHA             ON UNIT   1016 AT TIME STEP      8, STRESS PERIOD      2
 UBDSV06 SAVING              CHD IN MODEL TEST_TRANS       PACKAGE TEST_TRANS      CONNECTED TO MODEL TEST_TRANS       PACKAGE CHD              ON UNIT   1016 AT TIME STEP      8, STRESS PERIOD      2

 HEAD WILL BE SAVED ON UNIT 1017 AT END OF TIME STEP    8, STRESS PERIOD    2
 UBDSV1 SAVING           STO-SS ON UNIT   1016 AT TIME STEP      9, STRESS PERIOD      2
 UBDSV1 SAVING           STO-SY ON UNIT   1016 AT TIME STEP      9, STRESS PERIOD      2
 UBDSV1 SAVING     FLOW-JA-FACE ON UNIT   1016 AT TIME STEP      9, STRESS PERIOD      2
 UBDSV06 SAVING              RCH IN MODEL TEST_TRANS       PACKAGE TEST_TRANS      CONNECTED TO MODEL TEST_TRANS       PACKAGE RCHA             ON UNIT   1016 AT TIME STEP      9, STRESS PERIOD      2
 UBDSV06 SAVING              CHD IN MODEL TEST_TRANS       PACKAGE TEST_TRANS      CONNECTED TO MODEL TEST_TRANS       PACKAGE CHD              ON UNIT   1016 AT TIME STEP      9, STRESS PERIOD      2

 HEAD WILL BE SAVED ON UNIT 1017 AT END OF TIME STEP    9, STRESS PERIOD    2
 UBDSV1 SAVING           STO-SS ON UNIT   1016 AT TIME STEP     10, STRESS PERIOD      2
 UBDSV1 SAVING           STO-SY ON UNIT   1016 AT TIME STEP     10, STRESS PERIOD      2
 UBDSV1 SAVING     FLOW-JA-FACE ON UNIT   1016 AT TIME STEP     10, STRESS PERIOD      2
 UBDSV06 SAVING              RCH IN MODEL TEST_TRANS       PACKAGE TEST_TRANS      CONNECTED TO MODEL TEST_TRANS       PACKAGE RCHA             ON UNIT   1016 AT TIME STEP     10, STRESS PERIOD      2
 UBDSV06 SAVING              CHD IN MODEL TEST_TRANS       PACKAGE TEST_TRANS      CONNECTED TO MODEL TEST_TRANS       PACKAGE CHD              ON UNIT   1016 AT TIME STEP     10, STRESS PERIOD      2
1
  HEAD IN LAYER   1 AT END OF TIME STEP  10 IN STRESS PERIOD    2
  ---------------------------------------------------------------------------

            1           2           3           4           5           6           7           8           9          10
           11          12          13          14          15          16          17          18          19          20
           21          22          23          24          25          26          27          28          29          30
 ........................................................................................................................
   1    28.50       28.50       28.49       28.47       28.45       28.42       28.38       28.34       28.29       28.24    
        28.17       28.11       28.03       27.95       27.85       27.75       27.64       27.53       27.40       27.26    
        27.10       26.93       26.75       26.55       26.32       26.07       25.78       25.45       25.04       24.49    
   2    28.50       28.50       28.49       28.47       28.45       28.42       28.38       28.34       28.29       28.24    
        28.17       28.11       28.03       27.95       27.85       27.75       27.64       27.53       27.40       27.26    
        27.10       26.93       26.75       26.55       26.32       26.07       25.78       25.45       25.04       24.49    
   3    28.50       28.50       28.49       28.47       28.45       28.42       28.38       28.34       28.29       28.24    
        28.17       28.11       28.03       27.95       27.85       27.75       27.64       27.53       27.40       27.26    
        27.10       26.93       26.75       26.55       26.32       26.07       25.78       25.45       25.04       24.49    
   4    28.50       28.50       28.49       28.47       28.45       28.42       28.38       28.34       28.29       28.24    
        28.17       28.11       28.03       27.95       27.85       27.75       27.64       27.53       27.40       27.26    
        27.10       26.93       26.75       26.55       26.32       26.07       25.78       25.45       25.04       24.49    
   5    28.50       28.50       28.49       28.47       28.45       28.42       28.38       28.34       28.29       28.24    
        28.17       28.11       28.03       27.95       27.85       27.75       27.64       27.53       27.40       27.26    
        27.10       26.93       26.75       26.55       26.32       26.07       25.78       25.45       25.04       24.49    
   6    28.50       28.50       28.49       28.47       28.45       28.42       28.38       28.34       28.29       28.24    
        28.17       28.11       28.03       27.95       27.85       27.75       27.64       27.53       27.40       27.26    
        27.10       26.93       26.75       26.55       26.32       26.07       25.78       25.45       25.04       24.49    
   7    28.50       28.50       28.49       28.47       28.45       28.42       28.38       28.34       28.29       28.24    
        28.17       28.11       28.03       27.95       27.85       27.75       27.64       27.53       27.40       27.26    
        27.10       26.93       26.75       26.55       26.32       26.07       25.78       25.45       25.04       24.49    
   8    28.50       28.50       28.49       28.47       28.45       28.42       28.38       28.34       28.29       28.24    
        28.17       28.11       28.03       27.95       27.85       27.75       27.64       27.53       27.40       27.26    
        27.10       26.93       26.75       26.55       26.32       26.07       25.78       25.45       25.04       24.49    
   9    28.50       28.50       28.49       28.47       28.45       28.42       28.38       28.34       28.29       28.24    
        28.17       28.11       28.03       27.95       27.85       27.75       27.64       27.53       27.40       27.26    
        27.10       26.93       26.75       26.55       26.32       26.07       25.78       25.45       25.04       24.49    
  10    28.50       28.50       28.49       28.47       28.45       28.42       28.38       28.34       28.29       28.24    
        28.17       28.11       28.03       27.95       27.85       27.75       27.64       27.53       27.40       27.26    
        27.10       26.93       26.75       26.55       26.32       26.07       25.78       25.45       25.04       24.49    
  11    28.50       28.50       28.49       28.47       28.45       28.42       28.38       28.34       28.29       28.24    
        28.17       28.11       28.03       27.95       27.85       27.75       27.64       27.53       27.40       27.26    
        27.10       26.93       26.75       26.55       26.32       26.07       25.78       25.45       25.04       24.49    
  12    28.50       28.50       28.49       28.47       28.45       28.42       28.38       28.34       28.29       28.24    
        28.17       28.11       28.03       27.95       27.85       27.75       27.64       27.53       27.40       27.26    
        27.10       26.93       26.75       26.55       26.32       26.07       25.78       25.45       25.04       24.49    
  13    28.50       28.50       28.49       28.47       28.45       28.42       28.38       28.34       28.29       28.24    
        28.17       28.11       28.03       27.95       27.85       27.75       27.64       27.53       27.40       27.26    
        27.10       26.93       26.75       26.55       26.32       26.07       25.78       25.45       25.04       24.49    
  14    28.50       28.50       28.49       28.47       28.45       28.42       28.38       28.34       28.29       28.24    
        28.17       28.11       28.03       27.95       27.85       27.75       27.64       27.53       27.40       27.26    
        27.10       26.93       26.75       26.55       26.32       26.07       25.78       25.45       25.04       24.49    
  15    28.50       28.50       28.49       28.47       28.45       28.42       28.38       28.34       28.29       28.24    
        28.17       28.11       28.03       27.95       27.85       27.75       27.64       27.53       27.40       27.26    
        27.10       26.93       26.75       26.55       26.32       26.07       25.78       25.45       25.04       24.49    
  16    28.50       28.50       28.49       28.47       28.45       28.42       28.38       28.34       28.29       28.24    
        28.17       28.11       28.03       27.95       27.85       27.75       27.64       27.53       27.40       27.26    
        27.10       26.93       26.75       26.55       26.32       26.07       25.78       25.45       25.04       24.49    
  17    28.50       28.50       28.49       28.47       28.45       28.42       28.38       28.34       28.29       28.24    
        28.17       28.11       28.03       27.95       27.85       27.75       27.64       27.53       27.40       27.26    
        27.10       26.93       26.75       26.55       26.32       26.07       25.78       25.45       25.04       24.49    
  18    28.50       28.50       28.49       28.47       28.45       28.42       28.38       28.34       28.29       28.24    
        28.17       28.11       28.03       27.95       27.85       27.75       27.64       27.53       27.40       27.26    
        27.10       26.93       26.75       26.55       26.32       26.07       25.78       25.45       25.04       24.49    
  19    28.50       28.50       28.49       28.47       28.45       28.42       28.38       28.34       28.29       28.24    
        28.17       28.11       28.03       27.95       27.85       27.75       27.64       27.53       27.40       27.26    
        27.10       26.93       26.75       26.55       26.32       26.07       25.78       25.45       25.04       24.49    
  20    28.50       28.50       28.49       28.47       28.45       28.42       28.38       28.34       28.29       28.24    
        28.17       28.11       28.03       27.95       27.85       27.75       27.64       27.53       27.40       27.26    
        27.10       26.93       26.75       26.55       26.32       26.07       25.78       25.45       25.04       24.49    
  21    28.50       28.50       28.49       28.47       28.45       28.42       28.38       28.34       28.29       28.24    
        28.17       28.11       28.03       27.95       27.85       27.75       27.64       27.53       27.40       27.26    
        27.10       26.93       26.75       26.55       26.32       26.07       25.78       25.45       25.04       24.49    
  22    28.50       28.50       28.49       28.47       28.45       28.42       28.38       28.34       28.29       28.24    
        28.17       28.11       28.03       27.95       27.85       27.75       27.64       27.53       27.40       27.26    
        27.10       26.93       26.75       26.55       26.32       26.07       25.78       25.45       25.04       24.49    
  23    28.50       28.50       28.49       28.47       28.45       28.42       28.38       28.34       28.29       28.24    
        28.17       28.11       28.03       27.95       27.85       27.75       27.64       27.53       27.40       27.26    
        27.10       26.93       26.75       26.55       26.32       26.07       25.78       25.45       25.04       24.49    
  24    28.50       28.50       28.49       28.47       28.45       28.42       28.38       28.34       28.29       28.24    
        28.17       28.11       28.03       27.95       27.85       27.75       27.64       27.53       27.40       27.26    
        27.10       26.93       26.75       26.55       26.32       26.07       25.78       25.45       25.04       24.49    
  25    28.50       28.50       28.49       28.47       28.45       28.42       28.38       28.34       28.29       28.24    
        28.17       28.11       28.03       27.95       27.85       27.75       27.64       27.53       27.40       27.26    
        27.10       26.93       26.75       26.55       26.32       26.07       25.78       25.45       25.04       24.49    
  26    28.50       28.50       28.49       28.47       28.45       28.42       28.38       28.34       28.29       28.24    
        28.17       28.11       28.03       27.95       27.85       27.75       27.64       27.53       27.40       27.26    
        27.10       26.93       26.75       26.55       26.32       26.07       25.78       25.45       25.04       24.49    
  27    28.50       28.50       28.49       28.47       28.45       28.42       28.38       28.34       28.29       28.24    
        28.17       28.11       28.03       27.95       27.85       27.75       27.64       27.53       27.40       27.26    
        27.10       26.93       26.75       26.55       26.32       26.07       25.78       25.45       25.04       24.49    
  28    28.50       28.50       28.49       28.47       28.45       28.42       28.38       28.34       28.29       28.24    
        28.17       28.11       28.03       27.95       27.85       27.75       27.64       27.53       27.40       27.26    
        27.10       26.93       26.75       26.55       26.32       26.07       25.78       25.45       25.04       24.49    
  29    28.50       28.50       28.49       28.47       28.45       28.42       28.38       28.34       28.29       28.24    
        28.17       28.11       28.03       27.95       27.85       27.75       27.64       27.53       27.40       27.26    
        27.10       26.93       26.75       26.55       26.32       26.07       25.78       25.45       25.04       24.49    
  30    28.50       28.50       28.49       28.47       28.45       28.42       28.38       28.34       28.29       28.24    
        28.17       28.11       28.03       27.95       27.85       27.75       27.64       27.53       27.40       27.26    
        27.10       26.93       26.75       26.55       26.32       26.07       25.78       25.45       25.04       24.49    

 HEAD WILL BE SAVED ON UNIT 1017 AT END OF TIME STEP   10, STRESS PERIOD    2


  VOLUME BUDGET FOR ENTIRE MODEL AT END OF TIME STEP   10, STRESS PERIOD   2
  ---------------------------------------------------------------------------------------------------

     CUMULATIVE VOLUME      L**3       RATES FOR THIS TIME STEP      L**3/T          PACKAGE NAME    
     ------------------                 ------------------------                     ----------------

           IN:                                      IN:
           ---                                      ---
              STO-SS =           0.0000                STO-SS =           0.0000     STORAGE         
              STO-SY =           0.0000                STO-SY =           0.0000     STORAGE         
                 RCH =        8819.1752                   RCH =         286.0273     RCHA            
                 CHD =           0.0000                   CHD =           0.0000     CHD             

            TOTAL IN =        8819.1752              TOTAL IN =         286.0273

          OUT:                                     OUT:
          ----                                     ----
              STO-SS =           2.3898                STO-SS =       6.6382E-02     STORAGE         
              STO-SY =        1508.7611                STO-SY =          41.0548     STORAGE         
                 RCH =           0.0000                   RCH =           0.0000     RCHA            
                 CHD =        7308.1832                   CHD =         244.9131     CHD             

           TOTAL OUT =        8819.3341             TOTAL OUT =         286.0343

            IN - OUT =          -0.1589              IN - OUT =      -6.9845E-03

 PERCENT DISCREPANCY =          -0.00     PERCENT DISCREPANCY =          -0.00




         TIME SUMMARY AT END OF TIME STEP   10 IN STRESS PERIOD    2
                    SECONDS     MINUTES      HOURS       DAYS        YEARS
                    -----------------------------------------------------------
   TIME STEP LENGTH 2.59200E+05  4320.0      72.000      3.0000     8.21355E-03
 STRESS PERIOD TIME 2.59200E+06  43200.      720.00      30.000     8.21355E-02
         TOTAL TIME 2.67840E+06  44640.      744.00      31.000     8.48734E-02

 OUTPUT CONTROL FOR STRESS PERIOD 3 IS REPEATED USING SETTINGS FROM A PREVIOUS STRESS PERIOD.


 STRESS PERIOD 3 IS TRANSIENT


                 RECHARGE =  0.2465750E-02
 UBDSV1 SAVING           STO-SS ON UNIT   1016 AT TIME STEP      1, STRESS PERIOD      3
 UBDSV1 SAVING           STO-SY ON UNIT   1016 AT TIME STEP      1, STRESS PERIOD      3
 UBDSV1 SAVING     FLOW-JA-FACE ON UNIT   1016 AT TIME STEP      1, STRESS PERIOD      3
 UBDSV06 SAVING              RCH IN MODEL TEST_TRANS       PACKAGE TEST_TRANS      CONNECTED TO MODEL TEST_TRANS       PACKAGE RCHA             ON UNIT   1016 AT TIME STEP      1, STRESS PERIOD      3
 UBDSV06 SAVING              CHD IN MODEL TEST_TRANS       PACKAGE TEST_TRANS      CONNECTED TO MODEL TEST_TRANS       PACKAGE CHD              ON UNIT   1016 AT TIME STEP      1, STRESS PERIOD      3
1
  HEAD IN LAYER   1 AT END OF TIME STEP   1 IN STRESS PERIOD    3
  ---------------------------------------------------------------------------

            1           2           3           4           5           6           7           8           9          10
           11          12          13          14          15          16          17          18          19          20
           21          22          23          24          25          26          27          28          29          30
 ........................................................................................................................
   1    28.50       28.49       28.48       28.46       28.44       28.41       28.38       28.33       28.29       28.23    
        28.17       28.10       28.02       27.94       27.85       27.75       27.64       27.52       27.39       27.25    
        27.10       26.93       26.75       26.55       26.33       26.09       25.83       25.54       25.23       24.93    
   2    28.50       28.49       28.48       28.46       28.44       28.41       28.38       28.33       28.29       28.23    
        28.17       28.10       28.02       27.94       27.85       27.75       27.64       27.52       27.39       27.25    
        27.10       26.93       26.75       26.55       26.33       26.09       25.83       25.54       25.23       24.93    
   3    28.50       28.49       28.48       28.46       28.44       28.41       28.38       28.33       28.29       28.23    
        28.17       28.10       28.02       27.94       27.85       27.75       27.64       27.52       27.39       27.25    
        27.10       26.93       26.75       26.55       26.33       26.09       25.83       25.54       25.23       24.93    
   4    28.50       28.49       28.48       28.46       28.44       28.41       28.38       28.33       28.29       28.23    
        28.17       28.10       28.02       27.94       27.85       27.75       27.64       27.52       27.39       27.25    
        27.10       26.93       26.75       26.55       26.33       26.09       25.83       25.54       25.23       24.93    
   5    28.50       28.49       28.48       28.46       28.44       28.41       28.38       28.33       28.29       28.23    
        28.17       28.10       28.02       27.94       27.85       27.75       27.64       27.52       27.39       27.25    
        27.10       26.93       26.75       26.55       26.33       26.09       25.83       25.54       25.23       24.93    
   6    28.50       28.49       28.48       28.46       28.44       28.41       28.38       28.33       28.29       28.23    
        28.17       28.10       28.02       27.94       27.85       27.75       27.64       27.52       27.39       27.25    
        27.10       26.93       26.75       26.55       26.33       26.09       25.83       25.54       25.23       24.93    
   7    28.50       28.49       28.48       28.46       28.44       28.41       28.38       28.33       28.29       28.23    
        28.17       28.10       28.02       27.94       27.85       27.75       27.64       27.52       27.39       27.25    
        27.10       26.93       26.75       26.55       26.33       26.09       25.83       25.54       25.23       24.93    
   8    28.50       28.49       28.48       28.46       28.44       28.41       28.38       28.33       28.29       28.23    
        28.17       28.10       28.02       27.94       27.85       27.75       27.64       27.52       27.39       27.25    
        27.10       26.93       26.75       26.55       26.33       26.09       25.83       25.54       25.23       24.93    
   9    28.50       28.49       28.48       28.46       28.44       28.41       28.38       28.33       28.29       28.23    
        28.17       28.10       28.02       27.94       27.85       27.75       27.64       27.52       27.39       27.25    
        27.10       26.93       26.75       26.55       26.33       26.09       25.83       25.54       25.23       24.93    
  10    28.50       28.49       28.48       28.46       28.44       28.41       28.38       28.33       28.29       28.23    
        28.17       28.10       28.02       27.94       27.85       27.75       27.64       27.52       27.39       27.25    
        27.10       26.93       26.75       26.55       26.33       26.09       25.83       25.54       25.23       24.93    
  11    28.50       28.49       28.48       28.46       28.44       28.41       28.38       28.33       28.29       28.23    
        28.17       28.10       28.02       27.94       27.85       27.75       27.64       27.52       27.39       27.25    
        27.10       26.93       26.75       26.55       26.33       26.09       25.83       25.54       25.23       24.93    
  12    28.50       28.49       28.48       28.46       28.44       28.41       28.38       28.33       28.29       28.23    
        28.17       28.10       28.02       27.94       27.85       27.75       27.64       27.52       27.39       27.25    
        27.10       26.93       26.75       26.55       26.33       26.09       25.83       25.54       25.23       24.93    
  13    28.50       28.49       28.48       28.46       28.44       28.41       28.38       28.33       28.29       28.23    
        28.17       28.10       28.02       27.94       27.85       27.75       27.64       27.52       27.39       27.25    
        27.10       26.93       26.75       26.55       26.33       26.09       25.83       25.54       25.23       24.93    
  14    28.50       28.49       28.48       28.46       28.44       28.41       28.38       28.33       28.29       28.23    
        28.17       28.10       28.02       27.94       27.85       27.75       27.64       27.52       27.39       27.25    
        27.10       26.93       26.75       26.55       26.33       26.09       25.83       25.54       25.23       24.93    
  15    28.50       28.49       28.48       28.46       28.44       28.41       28.38       28.33       28.29       28.23    
        28.17       28.10       28.02       27.94       27.85       27.75       27.64       27.52       27.39       27.25    
        27.10       26.93       26.75       26.55       26.33       26.09       25.83       25.54       25.23       24.93    
  16    28.50       28.49       28.48       28.46       28.44       28.41       28.38       28.33       28.29       28.23    
        28.17       28.10       28.02       27.94       27.85       27.75       27.64       27.52       27.39       27.25    
        27.10       26.93       26.75       26.55       26.33       26.09       25.83       25.54       25.23       24.93    
  17    28.50       28.49       28.48       28.46       28.44       28.41       28.38       28.33       28.29       28.23    
        28.17       28.10       28.02       27.94       27.85       27.75       27.64       27.52       27.39       27.25    
        27.10       26.93       26.75       26.55       26.33       26.09       25.83       25.54       25.23       24.93    
  18    28.50       28.49       28.48       28.46       28.44       28.41       28.38       28.33       28.29       28.23    
        28.17       28.10       28.02       27.94       27.85       27.75       27.64       27.52       27.39       27.25    
        27.10       26.93       26.75       26.55       26.33       26.09       25.83       25.54       25.23       24.93    
  19    28.50       28.49       28.48       28.46       28.44       28.41       28.38       28.33       28.29       28.23    
        28.17       28.10       28.02       27.94       27.85       27.75       27.64       27.52       27.39       27.25    
        27.10       26.93       26.75       26.55       26.33       26.09       25.83       25.54       25.23       24.93    
  20    28.50       28.49       28.48       28.46       28.44       28.41       28.38       28.33       28.29       28.23    
        28.17       28.10       28.02       27.94       27.85       27.75       27.64       27.52       27.39       27.25    
        27.10       26.93       26.75       26.55       26.33       26.09       25.83       25.54       25.23       24.93    
  21    28.50       28.49       28.48       28.46       28.44       28.41       28.38       28.33       28.29       28.23    
        28.17       28.10       28.02       27.94       27.85       27.75       27.64       27.52       27.39       27.25    
        27.10       26.93       26.75       26.55       26.33       26.09       25.83       25.54       25.23       24.93    
  22    28.50       28.49       28.48       28.46       28.44       28.41       28.38       28.33       28.29       28.23    
        28.17       28.10       28.02       27.94       27.85       27.75       27.64       27.52       27.39       27.25    
        27.10       26.93       26.75       26.55       26.33       26.09       25.83       25.54       25.23       24.93    
  23    28.50       28.49       28.48       28.46       28.44       28.41       28.38       28.33       28.29       28.23    
        28.17       28.10       28.02       27.94       27.85       27.75       27.64       27.52       27.39       27.25    
        27.10       26.93       26.75       26.55       26.33       26.09       25.83       25.54       25.23       24.93    
  24    28.50       28.49       28.48       28.46       28.44       28.41       28.38       28.33       28.29       28.23    
        28.17       28.10       28.02       27.94       27.85       27.75       27.64       27.52       27.39       27.25    
        27.10       26.93       26.75       26.55       26.33       26.09       25.83       25.54       25.23       24.93    
  25    28.50       28.49       28.48       28.46       28.44       28.41       28.38       28.33       28.29       28.23    
        28.17       28.10       28.02       27.94       27.85       27.75       27.64       27.52       27.39       27.25    
        27.10       26.93       26.75       26.55       26.33       26.09       25.83       25.54       25.23       24.93    
  26    28.50       28.49       28.48       28.46       28.44       28.41       28.38       28.33       28.29       28.23    
        28.17       28.10       28.02       27.94       27.85       27.75       27.64       27.52       27.39       27.25    
        27.10       26.93       26.75       26.55       26.33       26.09       25.83       25.54       25.23       24.93    
  27    28.50       28.49       28.48       28.46       28.44       28.41       28.38       28.33       28.29       28.23    
        28.17       28.10       28.02       27.94       27.85       27.75       27.64       27.52       27.39       27.25    
        27.10       26.93       26.75       26.55       26.33       26.09       25.83       25.54       25.23       24.93    
  28    28.50       28.49       28.48       28.46       28.44       28.41       28.38       28.33       28.29       28.23    
        28.17       28.10       28.02       27.94       27.85       27.75       27.64       27.52       27.39       27.25    
        27.10       26.93       26.75       26.55       26.33       26.09       25.83       25.54       25.23       24.93    
  29    28.50       28.49       28.48       28.46       28.44       28.41       28.38       28.33       28.29       28.23    
        28.17       28.10       28.02       27.94       27.85       27.75       27.64       27.52       27.39       27.25    
        27.10       26.93       26.75       26.55       26.33       26.09       25.83       25.54       25.23       24.93    
  30    28.50       28.49       28.48       28.46       28.44       28.41       28.38       28.33       28.29       28.23    
        28.17       28.10       28.02       27.94       27.85       27.75       27.64       27.52       27.39       27.25    
        27.10       26.93       26.75       26.55       26.33       26.09       25.83       25.54       25.23       24.93    

 HEAD WILL BE SAVED ON UNIT 1017 AT END OF TIME STEP    1, STRESS PERIOD    3



         TIME SUMMARY AT END OF TIME STEP    1 IN STRESS PERIOD    3
                    SECONDS     MINUTES      HOURS       DAYS        YEARS
                    -----------------------------------------------------------
   TIME STEP LENGTH 2.59200E+05  4320.0      72.000      3.0000     8.21355E-03
 STRESS PERIOD TIME 2.59200E+05  4320.0      72.000      3.0000     8.21355E-03
         TOTAL TIME 2.93760E+06  48960.      816.00      34.000     9.30869E-02
 UBDSV1 SAVING           STO-SS ON UNIT   1016 AT TIME STEP      2, STRESS PERIOD      3
 UBDSV1 SAVING           STO-SY ON UNIT   1016 AT TIME STEP      2, STRESS PERIOD      3
 UBDSV1 SAVING     FLOW-JA-FACE ON UNIT   1016 AT TIME STEP      2, STRESS PERIOD      3
 UBDSV06 SAVING              RCH IN MODEL TEST_TRANS       PACKAGE TEST_TRANS      CONNECTED TO MODEL TEST_TRANS       PACKAGE RCHA             ON UNIT   1016 AT TIME STEP      2, STRESS PERIOD      3
 UBDSV06 SAVING              CHD IN MODEL TEST_TRANS       PACKAGE TEST_TRANS      CONNECTED TO MODEL TEST_TRANS       PACKAGE CHD              ON UNIT   1016 AT TIME STEP      2, STRESS PERIOD      3

 HEAD WILL BE SAVED ON UNIT 1017 AT END OF TIME STEP    2, STRESS PERIOD    3
 UBDSV1 SAVING           STO-SS ON UNIT   1016 AT TIME STEP      3, STRESS PERIOD      3
 UBDSV1 SAVING           STO-SY ON UNIT   1016 AT TIME STEP      3, STRESS PERIOD      3
 UBDSV1 SAVING     FLOW-JA-FACE ON UNIT   1016 AT TIME STEP      3, STRESS PERIOD      3
 UBDSV06 SAVING              RCH IN MODEL TEST_TRANS       PACKAGE TEST_TRANS      CONNECTED TO MODEL TEST_TRANS       PACKAGE RCHA             ON UNIT   1016 AT TIME STEP      3, STRESS PERIOD      3
 UBDSV06 SAVING              CHD IN MODEL TEST_TRANS       PACKAGE TEST_TRANS      CONNECTED TO MODEL TEST_TRANS       PACKAGE CHD              ON UNIT   1016 AT TIME STEP      3, STRESS PERIOD      3

 HEAD WILL BE SAVED ON UNIT 1017 AT END OF TIME STEP    3, STRESS PERIOD    3
 UBDSV1 SAVING           STO-SS ON UNIT   1016 AT TIME STEP      4, STRESS PERIOD      3
 UBDSV1 SAVING           STO-SY ON UNIT   1016 AT TIME STEP      4, STRESS PERIOD      3
 UBDSV1 SAVING     FLOW-JA-FACE ON UNIT   1016 AT TIME STEP      4, STRESS PERIOD      3
 UBDSV06 SAVING              RCH IN MODEL TEST_TRANS       PACKAGE TEST_TRANS      CONNECTED TO MODEL TEST_TRANS       PACKAGE RCHA             ON UNIT   1016 AT TIME STEP      4, STRESS PERIOD      3
 UBDSV06 SAVING              CHD IN MODEL TEST_TRANS       PACKAGE TEST_TRANS      CONNECTED TO MODEL TEST_TRANS       PACKAGE CHD              ON UNIT   1016 AT TIME STEP      4, STRESS PERIOD      3

 HEAD WILL BE SAVED ON UNIT 1017 AT END OF TIME STEP    4, STRESS PERIOD    3
 UBDSV1 SAVING           STO-SS ON UNIT   1016 AT TIME STEP      5, STRESS PERIOD      3
 UBDSV1 SAVING           STO-SY ON UNIT   1016 AT TIME STEP      5, STRESS PERIOD      3
 UBDSV1 SAVING     FLOW-JA-FACE ON UNIT   1016 AT TIME STEP      5, STRESS PERIOD      3
 UBDSV06 SAVING              RCH IN MODEL TEST_TRANS       PACKAGE TEST_TRANS      CONNECTED TO MODEL TEST_TRANS       PACKAGE RCHA             ON UNIT   1016 AT TIME STEP      5, STRESS PERIOD      3
 UBDSV06 SAVING              CHD IN MODEL TEST_TRANS       PACKAGE TEST_TRANS      CONNECTED TO MODEL TEST_TRANS       PACKAGE CHD              ON UNIT   1016 AT TIME STEP      5, STRESS PERIOD      3

 HEAD WILL BE SAVED ON UNIT 1017 AT END OF TIME STEP    5, STRESS PERIOD    3
 UBDSV1 SAVING           STO-SS ON UNIT   1016 AT TIME STEP      6, STRESS PERIOD      3
 UBDSV1 SAVING           STO-SY ON UNIT   1016 AT TIME STEP      6, STRESS PERIOD      3
 UBDSV1 SAVING     FLOW-JA-FACE ON UNIT   1016 AT TIME STEP      6, STRESS PERIOD      3
 UBDSV06 SAVING              RCH IN MODEL TEST_TRANS       PACKAGE TEST_TRANS      CONNECTED TO MODEL TEST_TRANS       PACKAGE RCHA             ON UNIT   1016 AT TIME STEP      6, STRESS PERIOD      3
 UBDSV06 SAVING              CHD IN MODEL TEST_TRANS       PACKAGE TEST_TRANS      CONNECTED TO MODEL TEST_TRANS       PACKAGE CHD              ON UNIT   1016 AT TIME STEP      6, STRESS PERIOD      3

 HEAD WILL BE SAVED ON UNIT 1017 AT END OF TIME STEP    6, STRESS PERIOD    3
 UBDSV1 SAVING           STO-SS ON UNIT   1016 AT TIME STEP      7, STRESS PERIOD      3
 UBDSV1 SAVING           STO-SY ON UNIT   1016 AT TIME STEP      7, STRESS PERIOD      3
 UBDSV1 SAVING     FLOW-JA-FACE ON UNIT   1016 AT TIME STEP      7, STRESS PERIOD      3
 UBDSV06 SAVING              RCH IN MODEL TEST_TRANS       PACKAGE TEST_TRANS      CONNECTED TO MODEL TEST_TRANS       PACKAGE RCHA             ON UNIT   1016 AT TIME STEP      7, STRESS PERIOD      3
 UBDSV06 SAVING              CHD IN MODEL TEST_TRANS       PACKAGE TEST_TRANS      CONNECTED TO MODEL TEST_TRANS       PACKAGE CHD              ON UNIT   1016 AT TIME STEP      7, STRESS PERIOD      3

 HEAD WILL BE SAVED ON UNIT 1017 AT END OF TIME STEP    7, STRESS PERIOD    3
 UBDSV1 SAVING           STO-SS ON UNIT   1016 AT TIME STEP      8, STRESS PERIOD      3
 UBDSV1 SAVING           STO-SY ON UNIT   1016 AT TIME STEP      8, STRESS PERIOD      3
 UBDSV1 SAVING     FLOW-JA-FACE ON UNIT   1016 AT TIME STEP      8, STRESS PERIOD      3
 UBDSV06 SAVING              RCH IN MODEL TEST_TRANS       PACKAGE TEST_TRANS      CONNECTED TO MODEL TEST_TRANS       PACKAGE RCHA             ON UNIT   1016 AT TIME STEP      8, STRESS PERIOD      3
 UBDSV06 SAVING              CHD IN MODEL TEST_TRANS       PACKAGE TEST_TRANS      CONNECTED TO MODEL TEST_TRANS       PACKAGE CHD              ON UNIT   1016 AT TIME STEP      8, STRESS PERIOD      3

 HEAD WILL BE SAVED ON UNIT 1017 AT END OF TIME STEP    8, STRESS PERIOD    3
 UBDSV1 SAVING           STO-SS ON UNIT   1016 AT TIME STEP      9, STRESS PERIOD      3
 UBDSV1 SAVING           STO-SY ON UNIT   1016 AT TIME STEP      9, STRESS PERIOD      3
 UBDSV1 SAVING     FLOW-JA-FACE ON UNIT   1016 AT TIME STEP      9, STRESS PERIOD      3
 UBDSV06 SAVING              RCH IN MODEL TEST_TRANS       PACKAGE TEST_TRANS      CONNECTED TO MODEL TEST_TRANS       PACKAGE RCHA             ON UNIT   1016 AT TIME STEP      9, STRESS PERIOD      3
 UBDSV06 SAVING              CHD IN MODEL TEST_TRANS       PACKAGE TEST_TRANS      CONNECTED TO MODEL TEST_TRANS       PACKAGE CHD              ON UNIT   1016 AT TIME STEP      9, STRESS PERIOD      3

 HEAD WILL BE SAVED ON UNIT 1017 AT END OF TIME STEP    9, STRESS PERIOD    3
 UBDSV1 SAVING           STO-SS ON UNIT   1016 AT TIME STEP     10, STRESS PERIOD      3
 UBDSV1 SAVING           STO-SY ON UNIT   1016 AT TIME STEP     10, STRESS PERIOD      3
 UBDSV1 SAVING     FLOW-JA-FACE ON UNIT   1016 AT TIME STEP     10, STRESS PERIOD      3
 UBDSV06 SAVING              RCH IN MODEL TEST_TRANS       PACKAGE TEST_TRANS      CONNECTED TO MODEL TEST_TRANS       PACKAGE RCHA             ON UNIT   1016 AT TIME STEP     10, STRESS PERIOD      3
 UBDSV06 SAVING              CHD IN MODEL TEST_TRANS       PACKAGE TEST_TRANS      CONNECTED TO MODEL TEST_TRANS       PACKAGE CHD              ON UNIT   1016 AT TIME STEP     10, STRESS PERIOD      3
1
  HEAD IN LAYER   1 AT END OF TIME STEP  10 IN STRESS PERIOD    3
  ---------------------------------------------------------------------------

            1           2           3           4           5           6           7           8           9          10
           11          12          13          14          15          16          17          18          19          20
           21          22          23          24          25          26          27          28          29          30
 ........................................................................................................................
   1    28.46       28.46       28.45       28.43       28.41       28.38       28.34       28.30       28.25       28.20    
        28.14       28.07       28.00       27.92       27.83       27.74       27.63       27.52       27.40       27.26    
        27.12       26.97       26.80       26.61       26.41       26.19       25.94       25.66       25.33       24.93    
   2    28.46       28.46       28.45       28.43       28.41       28.38       28.34       28.30       28.25       28.20    
        28.14       28.07       28.00       27.92       27.83       27.74       27.63       27.52       27.40       27.26    
        27.12       26.97       26.80       26.61       26.41       26.19       25.94       25.66       25.33       24.93    
   3    28.46       28.46       28.45       28.43       28.41       28.38       28.34       28.30       28.25       28.20    
        28.14       28.07       28.00       27.92       27.83       27.74       27.63       27.52       27.40       27.26    
        27.12       26.97       26.80       26.61       26.41       26.19       25.94       25.66       25.33       24.93    
   4    28.46       28.46       28.45       28.43       28.41       28.38       28.34       28.30       28.25       28.20    
        28.14       28.07       28.00       27.92       27.83       27.74       27.63       27.52       27.40       27.26    
        27.12       26.97       26.80       26.61       26.41       26.19       25.94       25.66       25.33       24.93    
   5    28.46       28.46       28.45       28.43       28.41       28.38       28.34       28.30       28.25       28.20    
        28.14       28.07       28.00       27.92       27.83       27.74       27.63       27.52       27.40       27.26    
        27.12       26.97       26.80       26.61       26.41       26.19       25.94       25.66       25.33       24.93    
   6    28.46       28.46       28.45       28.43       28.41       28.38       28.34       28.30       28.25       28.20    
        28.14       28.07       28.00       27.92       27.83       27.74       27.63       27.52       27.40       27.26    
        27.12       26.97       26.80       26.61       26.41       26.19       25.94       25.66       25.33       24.93    
   7    28.46       28.46       28.45       28.43       28.41       28.38       28.34       28.30       28.25       28.20    
        28.14       28.07       28.00       27.92       27.83       27.74       27.63       27.52       27.40       27.26    
        27.12       26.97       26.80       26.61       26.41       26.19       25.94       25.66       25.33       24.93    
   8    28.46       28.46       28.45       28.43       28.41       28.38       28.34       28.30       28.25       28.20    
        28.14       28.07       28.00       27.92       27.83       27.74       27.63       27.52       27.40       27.26    
        27.12       26.97       26.80       26.61       26.41       26.19       25.94       25.66       25.33       24.93    
   9    28.46       28.46       28.45       28.43       28.41       28.38       28.34       28.30       28.25       28.20    
        28.14       28.07       28.00       27.92       27.83       27.74       27.63       27.52       27.40       27.26    
        27.12       26.97       26.80       26.61       26.41       26.19       25.94       25.66       25.33       24.93    
  10    28.46       28.46       28.45       28.43       28.41       28.38       28.34       28.30       28.25       28.20    
        28.14       28.07       28.00       27.92       27.83       27.74       27.63       27.52       27.40       27.26    
        27.12       26.97       26.80       26.61       26.41       26.19       25.94       25.66       25.33       24.93    
  11    28.46       28.46       28.45       28.43       28.41       28.38       28.34       28.30       28.25       28.20    
        28.14       28.07       28.00       27.92       27.83       27.74       27.63       27.52       27.40       27.26    
        27.12       26.97       26.80       26.61       26.41       26.19       25.94       25.66       25.33       24.93    
  12    28.46       28.46       28.45       28.43       28.41       28.38       28.34       28.30       28.25       28.20    
        28.14       28.07       28.00       27.92       27.83       27.74       27.63       27.52       27.40       27.26    
        27.12       26.97       26.80       26.61       26.41       26.19       25.94       25.66       25.33       24.93    
  13    28.46       28.46       28.45       28.43       28.41       28.38       28.34       28.30       28.25       28.20    
        28.14       28.07       28.00       27.92       27.83       27.74       27.63       27.52       27.40       27.26    
        27.12       26.97       26.80       26.61       26.41       26.19       25.94       25.66       25.33       24.93    
  14    28.46       28.46       28.45       28.43       28.41       28.38       28.34       28.30       28.25       28.20    
        28.14       28.07       28.00       27.92       27.83       27.74       27.63       27.52       27.40       27.26    
        27.12       26.97       26.80       26.61       26.41       26.19       25.94       25.66       25.33       24.93    
  15    28.46       28.46       28.45       28.43       28.41       28.38       28.34       28.30       28.25       28.20    
        28.14       28.07       28.00       27.92       27.83       27.74       27.63       27.52       27.40       27.26    
        27.12       26.97       26.80       26.61       26.41       26.19       25.94       25.66       25.33       24.93    
  16    28.46       28.46       28.45       28.43       28.41       28.38       28.34       28.30       28.25       28.20    
        28.14       28.07       28.00       27.92       27.83       27.74       27.63       27.52       27.40       27.26    
        27.12       26.97       26.80       26.61       26.41       26.19       25.94       25.66       25.33       24.93    
  17    28.46       28.46       28.45       28.43       28.41       28.38       28.34       28.30       28.25       28.20    
        28.14       28.07       28.00       27.92       27.83       27.74       27.63       27.52       27.40       27.26    
        27.12       26.97       26.80       26.61       26.41       26.19       25.94       25.66       25.33       24.93    
  18    28.46       28.46       28.45       28.43       28.41       28.38       28.34       28.30       28.25       28.20    
        28.14       28.07       28.00       27.92       27.83       27.74       27.63       27.52       27.40       27.26    
        27.12       26.97       26.80       26.61       26.41       26.19       25.94       25.66       25.33       24.93    
  19    28.46       28.46       28.45       28.43       28.41       28.38       28.34       28.30       28.25       28.20    
        28.14       28.07       28.00       27.92       27.83       27.74       27.63       27.52       27.40       27.26    
        27.12       26.97       26.80       26.61       26.41       26.19       25.94       25.66       25.33       24.93    
  20    28.46       28.46       28.45       28.43       28.41       28.38       28.34       28.30       28.25       28.20    
        28.14       28.07       28.00       27.92       27.83       27.74       27.63       27.52       27.40       27.26    
        27.12       26.97       26.80       26.61       26.41       26.19       25.94       25.66       25.33       24.93    
  21    28.46       28.46       28.45       28.43       28.41       28.38       28.34       28.30       28.25       28.20    
        28.14       28.07       28.00       27.92       27.83       27.74       27.63       27.52       27.40       27.26    
        27.12       26.97       26.80       26.61       26.41       26.19       25.94       25.66       25.33       24.93    
  22    28.46       28.46       28.45       28.43       28.41       28.38       28.34       28.30       28.25       28.20    
        28.14       28.07       28.00       27.92       27.83       27.74       27.63       27.52       27.40       27.26    
        27.12       26.97       26.80       26.61       26.41       26.19       25.94       25.66       25.33       24.93    
  23    28.46       28.46       28.45       28.43       28.41       28.38       28.34       28.30       28.25       28.20    
        28.14       28.07       28.00       27.92       27.83       27.74       27.63       27.52       27.40       27.26    
        27.12       26.97       26.80       26.61       26.41       26.19       25.94       25.66       25.33       24.93    
  24    28.46       28.46       28.45       28.43       28.41       28.38       28.34       28.30       28.25       28.20    
        28.14       28.07       28.00       27.92       27.83       27.74       27.63       27.52       27.40       27.26    
        27.12       26.97       26.80       26.61       26.41       26.19       25.94       25.66       25.33       24.93    
  25    28.46       28.46       28.45       28.43       28.41       28.38       28.34       28.30       28.25       28.20    
        28.14       28.07       28.00       27.92       27.83       27.74       27.63       27.52       27.40       27.26    
        27.12       26.97       26.80       26.61       26.41       26.19       25.94       25.66       25.33       24.93    
  26    28.46       28.46       28.45       28.43       28.41       28.38       28.34       28.30       28.25       28.20    
        28.14       28.07       28.00       27.92       27.83       27.74       27.63       27.52       27.40       27.26    
        27.12       26.97       26.80       26.61       26.41       26.19       25.94       25.66       25.33       24.93    
  27    28.46       28.46       28.45       28.43       28.41       28.38       28.34       28.30       28.25       28.20    
        28.14       28.07       28.00       27.92       27.83       27.74       27.63       27.52       27.40       27.26    
        27.12       26.97       26.80       26.61       26.41       26.19       25.94       25.66       25.33       24.93    
  28    28.46       28.46       28.45       28.43       28.41       28.38       28.34       28.30       28.25       28.20    
        28.14       28.07       28.00       27.92       27.83       27.74       27.63       27.52       27.40       27.26    
        27.12       26.97       26.80       26.61       26.41       26.19       25.94       25.66       25.33       24.93    
  29    28.46       28.46       28.45       28.43       28.41       28.38       28.34       28.30       28.25       28.20    
        28.14       28.07       28.00       27.92       27.83       27.74       27.63       27.52       27.40       27.26    
        27.12       26.97       26.80       26.61       26.41       26.19       25.94       25.66       25.33       24.93    
  30    28.46       28.46       28.45       28.43       28.41       28.38       28.34       28.30       28.25       28.20    
        28.14       28.07       28.00       27.92       27.83       27.74       27.63       27.52       27.40       27.26    
        27.12       26.97       26.80       26.61       26.41       26.19       25.94       25.66       25.33       24.93    

 HEAD WILL BE SAVED ON UNIT 1017 AT END OF TIME STEP   10, STRESS PERIOD    3


  VOLUME BUDGET FOR ENTIRE MODEL AT END OF TIME STEP   10, STRESS PERIOD   3
  ---------------------------------------------------------------------------------------------------

     CUMULATIVE VOLUME      L**3       RATES FOR THIS TIME STEP      L**3/T          PACKAGE NAME    
     ------------------                 ------------------------                     ----------------

           IN:                                      IN:
           ---                                      ---
              STO-SS =           0.5955                STO-SS =       1.3485E-02     STORAGE         
              STO-SY =         356.0762                STO-SY =           8.0275     STORAGE         
                 RCH =       15254.7827                   RCH =         214.5203     RCHA            
                 CHD =           0.0000                   CHD =           0.0000     CHD             

            TOTAL IN =       15611.4545              TOTAL IN =         222.5612

          OUT:                                     OUT:
          ----                                     ----
              STO-SS =           3.3065                STO-SS =       6.5129E-03     STORAGE         
              STO-SY =        2147.0595                STO-SY =           4.3468     STORAGE         
                 RCH =           0.0000                   RCH =           0.0000     RCHA            
                 CHD =       13461.2958                   CHD =         218.2111     CHD             

           TOTAL OUT =       15611.6619             TOTAL OUT =         222.5644

            IN - OUT =          -0.2074              IN - OUT =      -3.1929E-03

 PERCENT DISCREPANCY =          -0.00     PERCENT DISCREPANCY =          -0.00




         TIME SUMMARY AT END OF TIME STEP   10 IN STRESS PERIOD    3
                    SECONDS     MINUTES      HOURS       DAYS        YEARS
                    -----------------------------------------------------------
   TIME STEP LENGTH 2.59200E+05  4320.0      72.000      3.0000     8.21355E-03
 STRESS PERIOD TIME 2.59200E+06  43200.      720.00      30.000     8.21355E-02
         TOTAL TIME 5.27040E+06  87840.      1464.0      61.000     0.16701    

 OUTPUT CONTROL FOR STRESS PERIOD 4 IS REPEATED USING SETTINGS FROM A PREVIOUS STRESS PERIOD.


 STRESS PERIOD 4 IS TRANSIENT


                 RECHARGE =  0.1643840E-02
 UBDSV1 SAVING           STO-SS ON UNIT   1016 AT TIME STEP      1, STRESS PERIOD      4
 UBDSV1 SAVING           STO-SY ON UNIT   1016 AT TIME STEP      1, STRESS PERIOD      4
 UBDSV1 SAVING     FLOW-JA-FACE ON UNIT   1016 AT TIME STEP      1, STRESS PERIOD      4
 UBDSV06 SAVING              RCH IN MODEL TEST_TRANS       PACKAGE TEST_TRANS      CONNECTED TO MODEL TEST_TRANS       PACKAGE RCHA             ON UNIT   1016 AT TIME STEP      1, STRESS PERIOD      4
 UBDSV06 SAVING              CHD IN MODEL TEST_TRANS       PACKAGE TEST_TRANS      CONNECTED TO MODEL TEST_TRANS       PACKAGE CHD              ON UNIT   1016 AT TIME STEP      1, STRESS PERIOD      4
1
  HEAD IN LAYER   1 AT END OF TIME STEP   1 IN STRESS PERIOD    4
  ---------------------------------------------------------------------------

            1           2           3           4           5           6           7           8           9          10
           11          12          13          14          15          16          17          18          19          20
           21          22          23          24          25          26          27          28          29          30
 ........................................................................................................................
   1    28.45       28.44       28.43       28.41       28.39       28.36       28.33       28.29       28.24       28.19    
        28.13       28.06       27.99       27.91       27.82       27.72       27.62       27.51       27.39       27.25    
        27.11       26.96       26.79       26.61       26.41       26.19       25.95       25.68       25.38       25.05    
   2    28.45       28.44       28.43       28.41       28.39       28.36       28.33       28.29       28.24       28.19    
        28.13       28.06       27.99       27.91       27.82       27.72       27.62       27.51       27.39       27.25    
        27.11       26.96       26.79       26.61       26.41       26.19       25.95       25.68       25.38       25.05    
   3    28.45       28.44       28.43       28.41       28.39       28.36       28.33       28.29       28.24       28.19    
        28.13       28.06       27.99       27.91       27.82       27.72       27.62       27.51       27.39       27.25    
        27.11       26.96       26.79       26.61       26.41       26.19       25.95       25.68       25.38       25.05    
   4    28.45       28.44       28.43       28.41       28.39       28.36       28.33       28.29       28.24       28.19    
        28.13       28.06       27.99       27.91       27.82       27.72       27.62       27.51       27.39       27.25    
        27.11       26.96       26.79       26.61       26.41       26.19       25.95       25.68       25.38       25.05    
   5    28.45       28.44       28.43       28.41       28.39       28.36       28.33       28.29       28.24       28.19    
        28.13       28.06       27.99       27.91       27.82       27.72       27.62       27.51       27.39       27.25    
        27.11       26.96       26.79       26.61       26.41       26.19       25.95       25.68       25.38       25.05    
   6    28.45       28.44       28.43       28.41       28.39       28.36       28.33       28.29       28.24       28.19    
        28.13       28.06       27.99       27.91       27.82       27.72       27.62       27.51       27.39       27.25    
        27.11       26.96       26.79       26.61       26.41       26.19       25.95       25.68       25.38       25.05    
   7    28.45       28.44       28.43       28.41       28.39       28.36       28.33       28.29       28.24       28.19    
        28.13       28.06       27.99       27.91       27.82       27.72       27.62       27.51       27.39       27.25    
        27.11       26.96       26.79       26.61       26.41       26.19       25.95       25.68       25.38       25.05    
   8    28.45       28.44       28.43       28.41       28.39       28.36       28.33       28.29       28.24       28.19    
        28.13       28.06       27.99       27.91       27.82       27.72       27.62       27.51       27.39       27.25    
        27.11       26.96       26.79       26.61       26.41       26.19       25.95       25.68       25.38       25.05    
   9    28.45       28.44       28.43       28.41       28.39       28.36       28.33       28.29       28.24       28.19    
        28.13       28.06       27.99       27.91       27.82       27.72       27.62       27.51       27.39       27.25    
        27.11       26.96       26.79       26.61       26.41       26.19       25.95       25.68       25.38       25.05    
  10    28.45       28.44       28.43       28.41       28.39       28.36       28.33       28.29       28.24       28.19    
        28.13       28.06       27.99       27.91       27.82       27.72       27.62       27.51       27.39       27.25    
        27.11       26.96       26.79       26.61       26.41       26.19       25.95       25.68       25.38       25.05    
  11    28.45       28.44       28.43       28.41       28.39       28.36       28.33       28.29       28.24       28.19    
        28.13       28.06       27.99       27.91       27.82       27.72       27.62       27.51       27.39       27.25    
        27.11       26.96       26.79       26.61       26.41       26.19       25.95       25.68       25.38       25.05    
  12    28.45       28.44       28.43       28.41       28.39       28.36       28.33       28.29       28.24       28.19    
        28.13       28.06       27.99       27.91       27.82       27.72       27.62       27.51       27.39       27.25    
        27.11       26.96       26.79       26.61       26.41       26.19       25.95       25.68       25.38       25.05    
  13    28.45       28.44       28.43       28.41       28.39       28.36       28.33       28.29       28.24       28.19    
        28.13       28.06       27.99       27.91       27.82       27.72       27.62       27.51       27.39       27.25    
        27.11       26.96       26.79       26.61       26.41       26.19       25.95       25.68       25.38       25.05    
  14    28.45       28.44       28.43       28.41       28.39       28.36       28.33       28.29       28.24       28.19    
        28.13       28.06       27.99       27.91       27.82       27.72       27.62       27.51       27.39       27.25    
        27.11       26.96       26.79       26.61       26.41       26.19       25.95       25.68       25.38       25.05    
  15    28.45       28.44       28.43       28.41       28.39       28.36       28.33       28.29       28.24       28.19    
        28.13       28.06       27.99       27.91       27.82       27.72       27.62       27.51       27.39       27.25    
        27.11       26.96       26.79       26.61       26.41       26.19       25.95       25.68       25.38       25.05    
  16    28.45       28.44       28.43       28.41       28.39       28.36       28.33       28.29       28.24       28.19    
        28.13       28.06       27.99       27.91       27.82       27.72       27.62       27.51       27.39       27.25    
        27.11       26.96       26.79       26.61       26.41       26.19       25.95       25.68       25.38       25.05    
  17    28.45       28.44       28.43       28.41       28.39       28.36       28.33       28.29       28.24       28.19    
        28.13       28.06       27.99       27.91       27.82       27.72       27.62       27.51       27.39       27.25    
        27.11       26.96       26.79       26.61       26.41       26.19       25.95       25.68       25.38       25.05    
  18    28.45       28.44       28.43       28.41       28.39       28.36       28.33       28.29       28.24       28.19    
        28.13       28.06       27.99       27.91       27.82       27.72       27.62       27.51       27.39       27.25    
        27.11       26.96       26.79       26.61       26.41       26.19       25.95       25.68       25.38       25.05    
  19    28.45       28.44       28.43       28.41       28.39       28.36       28.33       28.29       28.24       28.19    
        28.13       28.06       27.99       27.91       27.82       27.72       27.62       27.51       27.39       27.25    
        27.11       26.96       26.79       26.61       26.41       26.19       25.95       25.68       25.38       25.05    
  20    28.45       28.44       28.43       28.41       28.39       28.36       28.33       28.29       28.24       28.19    
        28.13       28.06       27.99       27.91       27.82       27.72       27.62       27.51       27.39       27.25    
        27.11       26.96       26.79       26.61       26.41       26.19       25.95       25.68       25.38       25.05    
  21    28.45       28.44       28.43       28.41       28.39       28.36       28.33       28.29       28.24       28.19    
        28.13       28.06       27.99       27.91       27.82       27.72       27.62       27.51       27.39       27.25    
        27.11       26.96       26.79       26.61       26.41       26.19       25.95       25.68       25.38       25.05    
  22    28.45       28.44       28.43       28.41       28.39       28.36       28.33       28.29       28.24       28.19    
        28.13       28.06       27.99       27.91       27.82       27.72       27.62       27.51       27.39       27.25    
        27.11       26.96       26.79       26.61       26.41       26.19       25.95       25.68       25.38       25.05    
  23    28.45       28.44       28.43       28.41       28.39       28.36       28.33       28.29       28.24       28.19    
        28.13       28.06       27.99       27.91       27.82       27.72       27.62       27.51       27.39       27.25    
        27.11       26.96       26.79       26.61       26.41       26.19       25.95       25.68       25.38       25.05    
  24    28.45       28.44       28.43       28.41       28.39       28.36       28.33       28.29       28.24       28.19    
        28.13       28.06       27.99       27.91       27.82       27.72       27.62       27.51       27.39       27.25    
        27.11       26.96       26.79       26.61       26.41       26.19       25.95       25.68       25.38       25.05    
  25    28.45       28.44       28.43       28.41       28.39       28.36       28.33       28.29       28.24       28.19    
        28.13       28.06       27.99       27.91       27.82       27.72       27.62       27.51       27.39       27.25    
        27.11       26.96       26.79       26.61       26.41       26.19       25.95       25.68       25.38       25.05    
  26    28.45       28.44       28.43       28.41       28.39       28.36       28.33       28.29       28.24       28.19    
        28.13       28.06       27.99       27.91       27.82       27.72       27.62       27.51       27.39       27.25    
        27.11       26.96       26.79       26.61       26.41       26.19       25.95       25.68       25.38       25.05    
  27    28.45       28.44       28.43       28.41       28.39       28.36       28.33       28.29       28.24       28.19    
        28.13       28.06       27.99       27.91       27.82       27.72       27.62       27.51       27.39       27.25    
        27.11       26.96       26.79       26.61       26.41       26.19       25.95       25.68       25.38       25.05    
  28    28.45       28.44       28.43       28.41       28.39       28.36       28.33       28.29       28.24       28.19    
        28.13       28.06       27.99       27.91       27.82       27.72       27.62       27.51       27.39       27.25    
        27.11       26.96       26.79       26.61       26.41       26.19       25.95       25.68       25.38       25.05    
  29    28.45       28.44       28.43       28.41       28.39       28.36       28.33       28.29       28.24       28.19    
        28.13       28.06       27.99       27.91       27.82       27.72       27.62       27.51       27.39       27.25    
        27.11       26.96       26.79       26.61       26.41       26.19       25.95       25.68       25.38       25.05    
  30    28.45       28.44       28.43       28.41       28.39       28.36       28.33       28.29       28.24       28.19    
        28.13       28.06       27.99       27.91       27.82       27.72       27.62       27.51       27.39       27.25    
        27.11       26.96       26.79       26.61       26.41       26.19       25.95       25.68       25.38       25.05    

 HEAD WILL BE SAVED ON UNIT 1017 AT END OF TIME STEP    1, STRESS PERIOD    4



         TIME SUMMARY AT END OF TIME STEP    1 IN STRESS PERIOD    4
                    SECONDS     MINUTES      HOURS       DAYS        YEARS
                    -----------------------------------------------------------
   TIME STEP LENGTH 2.59200E+05  4320.0      72.000      3.0000     8.21355E-03
 STRESS PERIOD TIME 2.59200E+05  4320.0      72.000      3.0000     8.21355E-03
         TOTAL TIME 5.52960E+06  92160.      1536.0      64.000     0.17522    
 UBDSV1 SAVING           STO-SS ON UNIT   1016 AT TIME STEP      2, STRESS PERIOD      4
 UBDSV1 SAVING           STO-SY ON UNIT   1016 AT TIME STEP      2, STRESS PERIOD      4
 UBDSV1 SAVING     FLOW-JA-FACE ON UNIT   1016 AT TIME STEP      2, STRESS PERIOD      4
 UBDSV06 SAVING              RCH IN MODEL TEST_TRANS       PACKAGE TEST_TRANS      CONNECTED TO MODEL TEST_TRANS       PACKAGE RCHA             ON UNIT   1016 AT TIME STEP      2, STRESS PERIOD      4
 UBDSV06 SAVING              CHD IN MODEL TEST_TRANS       PACKAGE TEST_TRANS      CONNECTED TO MODEL TEST_TRANS       PACKAGE CHD              ON UNIT   1016 AT TIME STEP      2, STRESS PERIOD      4

 HEAD WILL BE SAVED ON UNIT 1017 AT END OF TIME STEP    2, STRESS PERIOD    4
 UBDSV1 SAVING           STO-SS ON UNIT   1016 AT TIME STEP      3, STRESS PERIOD      4
 UBDSV1 SAVING           STO-SY ON UNIT   1016 AT TIME STEP      3, STRESS PERIOD      4
 UBDSV1 SAVING     FLOW-JA-FACE ON UNIT   1016 AT TIME STEP      3, STRESS PERIOD      4
 UBDSV06 SAVING              RCH IN MODEL TEST_TRANS       PACKAGE TEST_TRANS      CONNECTED TO MODEL TEST_TRANS       PACKAGE RCHA             ON UNIT   1016 AT TIME STEP      3, STRESS PERIOD      4
 UBDSV06 SAVING              CHD IN MODEL TEST_TRANS       PACKAGE TEST_TRANS      CONNECTED TO MODEL TEST_TRANS       PACKAGE CHD              ON UNIT   1016 AT TIME STEP      3, STRESS PERIOD      4

 HEAD WILL BE SAVED ON UNIT 1017 AT END OF TIME STEP    3, STRESS PERIOD    4
 UBDSV1 SAVING           STO-SS ON UNIT   1016 AT TIME STEP      4, STRESS PERIOD      4
 UBDSV1 SAVING           STO-SY ON UNIT   1016 AT TIME STEP      4, STRESS PERIOD      4
 UBDSV1 SAVING     FLOW-JA-FACE ON UNIT   1016 AT TIME STEP      4, STRESS PERIOD      4
 UBDSV06 SAVING              RCH IN MODEL TEST_TRANS       PACKAGE TEST_TRANS      CONNECTED TO MODEL TEST_TRANS       PACKAGE RCHA             ON UNIT   1016 AT TIME STEP      4, STRESS PERIOD      4
 UBDSV06 SAVING              CHD IN MODEL TEST_TRANS       PACKAGE TEST_TRANS      CONNECTED TO MODEL TEST_TRANS       PACKAGE CHD              ON UNIT   1016 AT TIME STEP      4, STRESS PERIOD      4

 HEAD WILL BE SAVED ON UNIT 1017 AT END OF TIME STEP    4, STRESS PERIOD    4
 UBDSV1 SAVING           STO-SS ON UNIT   1016 AT TIME STEP      5, STRESS PERIOD      4
 UBDSV1 SAVING           STO-SY ON UNIT   1016 AT TIME STEP      5, STRESS PERIOD      4
 UBDSV1 SAVING     FLOW-JA-FACE ON UNIT   1016 AT TIME STEP      5, STRESS PERIOD      4
 UBDSV06 SAVING              RCH IN MODEL TEST_TRANS       PACKAGE TEST_TRANS      CONNECTED TO MODEL TEST_TRANS       PACKAGE RCHA             ON UNIT   1016 AT TIME STEP      5, STRESS PERIOD      4
 UBDSV06 SAVING              CHD IN MODEL TEST_TRANS       PACKAGE TEST_TRANS      CONNECTED TO MODEL TEST_TRANS       PACKAGE CHD              ON UNIT   1016 AT TIME STEP      5, STRESS PERIOD      4

 HEAD WILL BE SAVED ON UNIT 1017 AT END OF TIME STEP    5, STRESS PERIOD    4
 UBDSV1 SAVING           STO-SS ON UNIT   1016 AT TIME STEP      6, STRESS PERIOD      4
 UBDSV1 SAVING           STO-SY ON UNIT   1016 AT TIME STEP      6, STRESS PERIOD      4
 UBDSV1 SAVING     FLOW-JA-FACE ON UNIT   1016 AT TIME STEP      6, STRESS PERIOD      4
 UBDSV06 SAVING              RCH IN MODEL TEST_TRANS       PACKAGE TEST_TRANS      CONNECTED TO MODEL TEST_TRANS       PACKAGE RCHA             ON UNIT   1016 AT TIME STEP      6, STRESS PERIOD      4
 UBDSV06 SAVING              CHD IN MODEL TEST_TRANS       PACKAGE TEST_TRANS      CONNECTED TO MODEL TEST_TRANS       PACKAGE CHD              ON UNIT   1016 AT TIME STEP      6, STRESS PERIOD      4

 HEAD WILL BE SAVED ON UNIT 1017 AT END OF TIME STEP    6, STRESS PERIOD    4
 UBDSV1 SAVING           STO-SS ON UNIT   1016 AT TIME STEP      7, STRESS PERIOD      4
 UBDSV1 SAVING           STO-SY ON UNIT   1016 AT TIME STEP      7, STRESS PERIOD      4
 UBDSV1 SAVING     FLOW-JA-FACE ON UNIT   1016 AT TIME STEP      7, STRESS PERIOD      4
 UBDSV06 SAVING              RCH IN MODEL TEST_TRANS       PACKAGE TEST_TRANS      CONNECTED TO MODEL TEST_TRANS       PACKAGE RCHA             ON UNIT   1016 AT TIME STEP      7, STRESS PERIOD      4
 UBDSV06 SAVING              CHD IN MODEL TEST_TRANS       PACKAGE TEST_TRANS      CONNECTED TO MODEL TEST_TRANS       PACKAGE CHD              ON UNIT   1016 AT TIME STEP      7, STRESS PERIOD      4

 HEAD WILL BE SAVED ON UNIT 1017 AT END OF TIME STEP    7, STRESS PERIOD    4
 UBDSV1 SAVING           STO-SS ON UNIT   1016 AT TIME STEP      8, STRESS PERIOD      4
 UBDSV1 SAVING           STO-SY ON UNIT   1016 AT TIME STEP      8, STRESS PERIOD      4
 UBDSV1 SAVING     FLOW-JA-FACE ON UNIT   1016 AT TIME STEP      8, STRESS PERIOD      4
 UBDSV06 SAVING              RCH IN MODEL TEST_TRANS       PACKAGE TEST_TRANS      CONNECTED TO MODEL TEST_TRANS       PACKAGE RCHA             ON UNIT   1016 AT TIME STEP      8, STRESS PERIOD      4
 UBDSV06 SAVING              CHD IN MODEL TEST_TRANS       PACKAGE TEST_TRANS      CONNECTED TO MODEL TEST_TRANS       PACKAGE CHD              ON UNIT   1016 AT TIME STEP      8, STRESS PERIOD      4

 HEAD WILL BE SAVED ON UNIT 1017 AT END OF TIME STEP    8, STRESS PERIOD    4
 UBDSV1 SAVING           STO-SS ON UNIT   1016 AT TIME STEP      9, STRESS PERIOD      4
 UBDSV1 SAVING           STO-SY ON UNIT   1016 AT TIME STEP      9, STRESS PERIOD      4
 UBDSV1 SAVING     FLOW-JA-FACE ON UNIT   1016 AT TIME STEP      9, STRESS PERIOD      4
 UBDSV06 SAVING              RCH IN MODEL TEST_TRANS       PACKAGE TEST_TRANS      CONNECTED TO MODEL TEST_TRANS       PACKAGE RCHA             ON UNIT   1016 AT TIME STEP      9, STRESS PERIOD      4
 UBDSV06 SAVING              CHD IN MODEL TEST_TRANS       PACKAGE TEST_TRANS      CONNECTED TO MODEL TEST_TRANS       PACKAGE CHD              ON UNIT   1016 AT TIME STEP      9, STRESS PERIOD      4

 HEAD WILL BE SAVED ON UNIT 1017 AT END OF TIME STEP    9, STRESS PERIOD    4
 UBDSV1 SAVING           STO-SS ON UNIT   1016 AT TIME STEP     10, STRESS PERIOD      4
 UBDSV1 SAVING           STO-SY ON UNIT   1016 AT TIME STEP     10, STRESS PERIOD      4
 UBDSV1 SAVING     FLOW-JA-FACE ON UNIT   1016 AT TIME STEP     10, STRESS PERIOD      4
 UBDSV06 SAVING              RCH IN MODEL TEST_TRANS       PACKAGE TEST_TRANS      CONNECTED TO MODEL TEST_TRANS       PACKAGE RCHA             ON UNIT   1016 AT TIME STEP     10, STRESS PERIOD      4
 UBDSV06 SAVING              CHD IN MODEL TEST_TRANS       PACKAGE TEST_TRANS      CONNECTED TO MODEL TEST_TRANS       PACKAGE CHD              ON UNIT   1016 AT TIME STEP     10, STRESS PERIOD      4
1
  HEAD IN LAYER   1 AT END OF TIME STEP  10 IN STRESS PERIOD    4
  ---------------------------------------------------------------------------

            1           2           3           4           5           6           7           8           9          10
           11          12          13          14          15          16          17          18          19          20
           21          22          23          24          25          26          27          28          29          30
 ........................................................................................................................
   1    28.32       28.31       28.30       28.29       28.26       28.24       28.20       28.16       28.12       28.07    
        28.01       27.95       27.88       27.80       27.72       27.62       27.53       27.42       27.30       27.18    
        27.04       26.89       26.74       26.56       26.37       26.17       25.94       25.68       25.39       25.05    
   2    28.32       28.31       28.30       28.29       28.26       28.24       28.20       28.16       28.12       28.07    
        28.01       27.95       27.88       27.80       27.72       27.62       27.53       27.42       27.30       27.18    
        27.04       26.89       26.74       26.56       26.37       26.17       25.94       25.68       25.39       25.05    
   3    28.32       28.31       28.30       28.29       28.26       28.24       28.20       28.16       28.12       28.07    
        28.01       27.95       27.88       27.80       27.72       27.62       27.53       27.42       27.30       27.18    
        27.04       26.89       26.74       26.56       26.37       26.17       25.94       25.68       25.39       25.05    
   4    28.32       28.31       28.30       28.29       28.26       28.24       28.20       28.16       28.12       28.07    
        28.01       27.95       27.88       27.80       27.72       27.62       27.53       27.42       27.30       27.18    
        27.04       26.89       26.74       26.56       26.37       26.17       25.94       25.68       25.39       25.05    
   5    28.32       28.31       28.30       28.29       28.26       28.24       28.20       28.16       28.12       28.07    
        28.01       27.95       27.88       27.80       27.72       27.62       27.53       27.42       27.30       27.18    
        27.04       26.89       26.74       26.56       26.37       26.17       25.94       25.68       25.39       25.05    
   6    28.32       28.31       28.30       28.29       28.26       28.24       28.20       28.16       28.12       28.07    
        28.01       27.95       27.88       27.80       27.72       27.62       27.53       27.42       27.30       27.18    
        27.04       26.89       26.74       26.56       26.37       26.17       25.94       25.68       25.39       25.05    
   7    28.32       28.31       28.30       28.29       28.26       28.24       28.20       28.16       28.12       28.07    
        28.01       27.95       27.88       27.80       27.72       27.62       27.53       27.42       27.30       27.18    
        27.04       26.89       26.74       26.56       26.37       26.17       25.94       25.68       25.39       25.05    
   8    28.32       28.31       28.30       28.29       28.26       28.24       28.20       28.16       28.12       28.07    
        28.01       27.95       27.88       27.80       27.72       27.62       27.53       27.42       27.30       27.18    
        27.04       26.89       26.74       26.56       26.37       26.17       25.94       25.68       25.39       25.05    
   9    28.32       28.31       28.30       28.29       28.26       28.24       28.20       28.16       28.12       28.07    
        28.01       27.95       27.88       27.80       27.72       27.62       27.53       27.42       27.30       27.18    
        27.04       26.89       26.74       26.56       26.37       26.17       25.94       25.68       25.39       25.05    
  10    28.32       28.31       28.30       28.29       28.26       28.24       28.20       28.16       28.12       28.07    
        28.01       27.95       27.88       27.80       27.72       27.62       27.53       27.42       27.30       27.18    
        27.04       26.89       26.74       26.56       26.37       26.17       25.94       25.68       25.39       25.05    
  11    28.32       28.31       28.30       28.29       28.26       28.24       28.20       28.16       28.12       28.07    
        28.01       27.95       27.88       27.80       27.72       27.62       27.53       27.42       27.30       27.18    
        27.04       26.89       26.74       26.56       26.37       26.17       25.94       25.68       25.39       25.05    
  12    28.32       28.31       28.30       28.29       28.26       28.24       28.20       28.16       28.12       28.07    
        28.01       27.95       27.88       27.80       27.72       27.62       27.53       27.42       27.30       27.18    
        27.04       26.89       26.74       26.56       26.37       26.17       25.94       25.68       25.39       25.05    
  13    28.32       28.31       28.30       28.29       28.26       28.24       28.20       28.16       28.12       28.07    
        28.01       27.95       27.88       27.80       27.72       27.62       27.53       27.42       27.30       27.18    
        27.04       26.89       26.74       26.56       26.37       26.17       25.94       25.68       25.39       25.05    
  14    28.32       28.31       28.30       28.29       28.26       28.24       28.20       28.16       28.12       28.07    
        28.01       27.95       27.88       27.80       27.72       27.62       27.53       27.42       27.30       27.18    
        27.04       26.89       26.74       26.56       26.37       26.17       25.94       25.68       25.39       25.05    
  15    28.32       28.31       28.30       28.29       28.26       28.24       28.20       28.16       28.12       28.07    
        28.01       27.95       27.88       27.80       27.72       27.62       27.53       27.42       27.30       27.18    
        27.04       26.89       26.74       26.56       26.37       26.17       25.94       25.68       25.39       25.05    
  16    28.32       28.31       28.30       28.29       28.26       28.24       28.20       28.16       28.12       28.07    
        28.01       27.95       27.88       27.80       27.72       27.62       27.53       27.42       27.30       27.18    
        27.04       26.89       26.74       26.56       26.37       26.17       25.94       25.68       25.39       25.05    
  17    28.32       28.31       28.30       28.29       28.26       28.24       28.20       28.16       28.12       28.07    
        28.01       27.95       27.88       27.80       27.72       27.62       27.53       27.42       27.30       27.18    
        27.04       26.89       26.74       26.56       26.37       26.17       25.94       25.68       25.39       25.05    
  18    28.32       28.31       28.30       28.29       28.26       28.24       28.20       28.16       28.12       28.07    
        28.01       27.95       27.88       27.80       27.72       27.62       27.53       27.42       27.30       27.18    
        27.04       26.89       26.74       26.56       26.37       26.17       25.94       25.68       25.39       25.05    
  19    28.32       28.31       28.30       28.29       28.26       28.24       28.20       28.16       28.12       28.07    
        28.01       27.95       27.88       27.80       27.72       27.62       27.53       27.42       27.30       27.18    
        27.04       26.89       26.74       26.56       26.37       26.17       25.94       25.68       25.39       25.05    
  20    28.32       28.31       28.30       28.29       28.26       28.24       28.20       28.16       28.12       28.07    
        28.01       27.95       27.88       27.80       27.72       27.62       27.53       27.42       27.30       27.18    
        27.04       26.89       26.74       26.56       26.37       26.17       25.94       25.68       25.39       25.05    
  21    28.32       28.31       28.30       28.29       28.26       28.24       28.20       28.16       28.12       28.07    
        28.01       27.95       27.88       27.80       27.72       27.62       27.53       27.42       27.30       27.18    
        27.04       26.89       26.74       26.56       26.37       26.17       25.94       25.68       25.39       25.05    
  22    28.32       28.31       28.30       28.29       28.26       28.24       28.20       28.16       28.12       28.07    
        28.01       27.95       27.88       27.80       27.72       27.62       27.53       27.42       27.30       27.18    
        27.04       26.89       26.74       26.56       26.37       26.17       25.94       25.68       25.39       25.05    
  23    28.32       28.31       28.30       28.29       28.26       28.24       28.20       28.16       28.12       28.07    
        28.01       27.95       27.88       27.80       27.72       27.62       27.53       27.42       27.30       27.18    
        27.04       26.89       26.74       26.56       26.37       26.17       25.94       25.68       25.39       25.05    
  24    28.32       28.31       28.30       28.29       28.26       28.24       28.20       28.16       28.12       28.07    
        28.01       27.95       27.88       27.80       27.72       27.62       27.53       27.42       27.30       27.18    
        27.04       26.89       26.74       26.56       26.37       26.17       25.94       25.68       25.39       25.05    
  25    28.32       28.31       28.30       28.29       28.26       28.24       28.20       28.16       28.12       28.07    
        28.01       27.95       27.88       27.80       27.72       27.62       27.53       27.42       27.30       27.18    
        27.04       26.89       26.74       26.56       26.37       26.17       25.94       25.68       25.39       25.05    
  26    28.32       28.31       28.30       28.29       28.26       28.24       28.20       28.16       28.12       28.07    
        28.01       27.95       27.88       27.80       27.72       27.62       27.53       27.42       27.30       27.18    
        27.04       26.89       26.74       26.56       26.37       26.17       25.94       25.68       25.39       25.05    
  27    28.32       28.31       28.30       28.29       28.26       28.24       28.20       28.16       28.12       28.07    
        28.01       27.95       27.88       27.80       27.72       27.62       27.53       27.42       27.30       27.18    
        27.04       26.89       26.74       26.56       26.37       26.17       25.94       25.68       25.39       25.05    
  28    28.32       28.31       28.30       28.29       28.26       28.24       28.20       28.16       28.12       28.07    
        28.01       27.95       27.88       27.80       27.72       27.62       27.53       27.42       27.30       27.18    
        27.04       26.89       26.74       26.56       26.37       26.17       25.94       25.68       25.39       25.05    
  29    28.32       28.31       28.30       28.29       28.26       28.24       28.20       28.16       28.12       28.07    
        28.01       27.95       27.88       27.80       27.72       27.62       27.53       27.42       27.30       27.18    
        27.04       26.89       26.74       26.56       26.37       26.17       25.94       25.68       25.39       25.05    
  30    28.32       28.31       28.30       28.29       28.26       28.24       28.20       28.16       28.12       28.07    
        28.01       27.95       27.88       27.80       27.72       27.62       27.53       27.42       27.30       27.18    
        27.04       26.89       26.74       26.56       26.37       26.17       25.94       25.68       25.39       25.05    

 HEAD WILL BE SAVED ON UNIT 1017 AT END OF TIME STEP   10, STRESS PERIOD    4


  VOLUME BUDGET FOR ENTIRE MODEL AT END OF TIME STEP   10, STRESS PERIOD   4
  ---------------------------------------------------------------------------------------------------

     CUMULATIVE VOLUME      L**3       RATES FOR THIS TIME STEP      L**3/T          PACKAGE NAME    
     ------------------                 ------------------------                     ----------------

           IN:                                      IN:
           ---                                      ---
              STO-SS =           3.4142                STO-SS =       8.7582E-02     STORAGE         
              STO-SY =        2077.3641                STO-SY =          53.8426     STORAGE         
                 RCH =       19545.2051                   RCH =         143.0141     RCHA            
                 CHD =           0.0000                   CHD =           0.0000     CHD             

            TOTAL IN =       21625.9834              TOTAL IN =         196.9443

          OUT:                                     OUT:
          ----                                     ----
              STO-SS =           3.4039                STO-SS =           0.0000     STORAGE         
              STO-SY =        2216.3769                STO-SY =           0.0000     STORAGE         
                 RCH =           0.0000                   RCH =           0.0000     RCHA            
                 CHD =       19406.2582                   CHD =         196.9400     CHD             

           TOTAL OUT =       21626.0390             TOTAL OUT =         196.9400

            IN - OUT =      -5.5552E-02              IN - OUT =       4.2680E-03

 PERCENT DISCREPANCY =          -0.00     PERCENT DISCREPANCY =           0.00




         TIME SUMMARY AT END OF TIME STEP   10 IN STRESS PERIOD    4
                    SECONDS     MINUTES      HOURS       DAYS        YEARS
                    -----------------------------------------------------------
   TIME STEP LENGTH 2.59200E+05  4320.0      72.000      3.0000     8.21355E-03
 STRESS PERIOD TIME 2.59200E+06  43200.      720.00      30.000     8.21355E-02
         TOTAL TIME 7.86240E+06 1.31040E+05  2184.0      91.000     0.24914    

 OUTPUT CONTROL FOR STRESS PERIOD 5 IS REPEATED USING SETTINGS FROM A PREVIOUS STRESS PERIOD.


 STRESS PERIOD 5 IS TRANSIENT


                 RECHARGE =  0.1232880E-02
 UBDSV1 SAVING           STO-SS ON UNIT   1016 AT TIME STEP      1, STRESS PERIOD      5
 UBDSV1 SAVING           STO-SY ON UNIT   1016 AT TIME STEP      1, STRESS PERIOD      5
 UBDSV1 SAVING     FLOW-JA-FACE ON UNIT   1016 AT TIME STEP      1, STRESS PERIOD      5
 UBDSV06 SAVING              RCH IN MODEL TEST_TRANS       PACKAGE TEST_TRANS      CONNECTED TO MODEL TEST_TRANS       PACKAGE RCHA             ON UNIT   1016 AT TIME STEP      1, STRESS PERIOD      5
 UBDSV06 SAVING              CHD IN MODEL TEST_TRANS       PACKAGE TEST_TRANS      CONNECTED TO MODEL TEST_TRANS       PACKAGE CHD              ON UNIT   1016 AT TIME STEP      1, STRESS PERIOD      5
1
  HEAD IN LAYER   1 AT END OF TIME STEP   1 IN STRESS PERIOD    5
  ---------------------------------------------------------------------------

            1           2           3           4           5           6           7           8           9          10
           11          12          13          14          15          16          17          18          19          20
           21          22          23          24          25          26          27          28          29          30
 ........................................................................................................................
   1    28.30       28.30       28.28       28.27       28.25       28.22       28.18       28.15       28.10       28.05    
        27.99       27.93       27.86       27.78       27.70       27.61       27.51       27.40       27.29       27.16    
        27.03       26.88       26.72       26.55       26.37       26.17       25.94       25.70       25.43       25.13    
   2    28.30       28.30       28.28       28.27       28.25       28.22       28.18       28.15       28.10       28.05    
        27.99       27.93       27.86       27.78       27.70       27.61       27.51       27.40       27.29       27.16    
        27.03       26.88       26.72       26.55       26.37       26.17       25.94       25.70       25.43       25.13    
   3    28.30       28.30       28.28       28.27       28.25       28.22       28.18       28.15       28.10       28.05    
        27.99       27.93       27.86       27.78       27.70       27.61       27.51       27.40       27.29       27.16    
        27.03       26.88       26.72       26.55       26.37       26.17       25.94       25.70       25.43       25.13    
   4    28.30       28.30       28.28       28.27       28.25       28.22       28.18       28.15       28.10       28.05    
        27.99       27.93       27.86       27.78       27.70       27.61       27.51       27.40       27.29       27.16    
        27.03       26.88       26.72       26.55       26.37       26.17       25.94       25.70       25.43       25.13    
   5    28.30       28.30       28.28       28.27       28.25       28.22       28.18       28.15       28.10       28.05    
        27.99       27.93       27.86       27.78       27.70       27.61       27.51       27.40       27.29       27.16    
        27.03       26.88       26.72       26.55       26.37       26.17       25.94       25.70       25.43       25.13    
   6    28.30       28.30       28.28       28.27       28.25       28.22       28.18       28.15       28.10       28.05    
        27.99       27.93       27.86       27.78       27.70       27.61       27.51       27.40       27.29       27.16    
        27.03       26.88       26.72       26.55       26.37       26.17       25.94       25.70       25.43       25.13    
   7    28.30       28.30       28.28       28.27       28.25       28.22       28.18       28.15       28.10       28.05    
        27.99       27.93       27.86       27.78       27.70       27.61       27.51       27.40       27.29       27.16    
        27.03       26.88       26.72       26.55       26.37       26.17       25.94       25.70       25.43       25.13    
   8    28.30       28.30       28.28       28.27       28.25       28.22       28.18       28.15       28.10       28.05    
        27.99       27.93       27.86       27.78       27.70       27.61       27.51       27.40       27.29       27.16    
        27.03       26.88       26.72       26.55       26.37       26.17       25.94       25.70       25.43       25.13    
   9    28.30       28.30       28.28       28.27       28.25       28.22       28.18       28.15       28.10       28.05    
        27.99       27.93       27.86       27.78       27.70       27.61       27.51       27.40       27.29       27.16    
        27.03       26.88       26.72       26.55       26.37       26.17       25.94       25.70       25.43       25.13    
  10    28.30       28.30       28.28       28.27       28.25       28.22       28.18       28.15       28.10       28.05    
        27.99       27.93       27.86       27.78       27.70       27.61       27.51       27.40       27.29       27.16    
        27.03       26.88       26.72       26.55       26.37       26.17       25.94       25.70       25.43       25.13    
  11    28.30       28.30       28.28       28.27       28.25       28.22       28.18       28.15       28.10       28.05    
        27.99       27.93       27.86       27.78       27.70       27.61       27.51       27.40       27.29       27.16    
        27.03       26.88       26.72       26.55       26.37       26.17       25.94       25.70       25.43       25.13    
  12    28.30       28.30       28.28       28.27       28.25       28.22       28.18       28.15       28.10       28.05    
        27.99       27.93       27.86       27.78       27.70       27.61       27.51       27.40       27.29       27.16    
        27.03       26.88       26.72       26.55       26.37       26.17       25.94       25.70       25.43       25.13    
  13    28.30       28.30       28.28       28.27       28.25       28.22       28.18       28.15       28.10       28.05    
        27.99       27.93       27.86       27.78       27.70       27.61       27.51       27.40       27.29       27.16    
        27.03       26.88       26.72       26.55       26.37       26.17       25.94       25.70       25.43       25.13    
  14    28.30       28.30       28.28       28.27       28.25       28.22       28.18       28.15       28.10       28.05    
        27.99       27.93       27.86       27.78       27.70       27.61       27.51       27.40       27.29       27.16    
        27.03       26.88       26.72       26.55       26.37       26.17       25.94       25.70       25.43       25.13    
  15    28.30       28.30       28.28       28.27       28.25       28.22       28.18       28.15       28.10       28.05    
        27.99       27.93       27.86       27.78       27.70       27.61       27.51       27.40       27.29       27.16    
        27.03       26.88       26.72       26.55       26.37       26.17       25.94       25.70       25.43       25.13    
  16    28.30       28.30       28.28       28.27       28.25       28.22       28.18       28.15       28.10       28.05    
        27.99       27.93       27.86       27.78       27.70       27.61       27.51       27.40       27.29       27.16    
        27.03       26.88       26.72       26.55       26.37       26.17       25.94       25.70       25.43       25.13    
  17    28.30       28.30       28.28       28.27       28.25       28.22       28.18       28.15       28.10       28.05    
        27.99       27.93       27.86       27.78       27.70       27.61       27.51       27.40       27.29       27.16    
        27.03       26.88       26.72       26.55       26.37       26.17       25.94       25.70       25.43       25.13    
  18    28.30       28.30       28.28       28.27       28.25       28.22       28.18       28.15       28.10       28.05    
        27.99       27.93       27.86       27.78       27.70       27.61       27.51       27.40       27.29       27.16    
        27.03       26.88       26.72       26.55       26.37       26.17       25.94       25.70       25.43       25.13    
  19    28.30       28.30       28.28       28.27       28.25       28.22       28.18       28.15       28.10       28.05    
        27.99       27.93       27.86       27.78       27.70       27.61       27.51       27.40       27.29       27.16    
        27.03       26.88       26.72       26.55       26.37       26.17       25.94       25.70       25.43       25.13    
  20    28.30       28.30       28.28       28.27       28.25       28.22       28.18       28.15       28.10       28.05    
        27.99       27.93       27.86       27.78       27.70       27.61       27.51       27.40       27.29       27.16    
        27.03       26.88       26.72       26.55       26.37       26.17       25.94       25.70       25.43       25.13    
  21    28.30       28.30       28.28       28.27       28.25       28.22       28.18       28.15       28.10       28.05    
        27.99       27.93       27.86       27.78       27.70       27.61       27.51       27.40       27.29       27.16    
        27.03       26.88       26.72       26.55       26.37       26.17       25.94       25.70       25.43       25.13    
  22    28.30       28.30       28.28       28.27       28.25       28.22       28.18       28.15       28.10       28.05    
        27.99       27.93       27.86       27.78       27.70       27.61       27.51       27.40       27.29       27.16    
        27.03       26.88       26.72       26.55       26.37       26.17       25.94       25.70       25.43       25.13    
  23    28.30       28.30       28.28       28.27       28.25       28.22       28.18       28.15       28.10       28.05    
        27.99       27.93       27.86       27.78       27.70       27.61       27.51       27.40       27.29       27.16    
        27.03       26.88       26.72       26.55       26.37       26.17       25.94       25.70       25.43       25.13    
  24    28.30       28.30       28.28       28.27       28.25       28.22       28.18       28.15       28.10       28.05    
        27.99       27.93       27.86       27.78       27.70       27.61       27.51       27.40       27.29       27.16    
        27.03       26.88       26.72       26.55       26.37       26.17       25.94       25.70       25.43       25.13    
  25    28.30       28.30       28.28       28.27       28.25       28.22       28.18       28.15       28.10       28.05    
        27.99       27.93       27.86       27.78       27.70       27.61       27.51       27.40       27.29       27.16    
        27.03       26.88       26.72       26.55       26.37       26.17       25.94       25.70       25.43       25.13    
  26    28.30       28.30       28.28       28.27       28.25       28.22       28.18       28.15       28.10       28.05    
        27.99       27.93       27.86       27.78       27.70       27.61       27.51       27.40       27.29       27.16    
        27.03       26.88       26.72       26.55       26.37       26.17       25.94       25.70       25.43       25.13    
  27    28.30       28.30       28.28       28.27       28.25       28.22       28.18       28.15       28.10       28.05    
        27.99       27.93       27.86       27.78       27.70       27.61       27.51       27.40       27.29       27.16    
        27.03       26.88       26.72       26.55       26.37       26.17       25.94       25.70       25.43       25.13    
  28    28.30       28.30       28.28       28.27       28.25       28.22       28.18       28.15       28.10       28.05    
        27.99       27.93       27.86       27.78       27.70       27.61       27.51       27.40       27.29       27.16    
        27.03       26.88       26.72       26.55       26.37       26.17       25.94       25.70       25.43       25.13    
  29    28.30       28.30       28.28       28.27       28.25       28.22       28.18       28.15       28.10       28.05    
        27.99       27.93       27.86       27.78       27.70       27.61       27.51       27.40       27.29       27.16    
        27.03       26.88       26.72       26.55       26.37       26.17       25.94       25.70       25.43       25.13    
  30    28.30       28.30       28.28       28.27       28.25       28.22       28.18       28.15       28.10       28.05    
        27.99       27.93       27.86       27.78       27.70       27.61       27.51       27.40       27.29       27.16    
        27.03       26.88       26.72       26.55       26.37       26.17       25.94       25.70       25.43       25.13    

 HEAD WILL BE SAVED ON UNIT 1017 AT END OF TIME STEP    1, STRESS PERIOD    5



         TIME SUMMARY AT END OF TIME STEP    1 IN STRESS PERIOD    5
                    SECONDS     MINUTES      HOURS       DAYS        YEARS
                    -----------------------------------------------------------
   TIME STEP LENGTH 2.59200E+05  4320.0      72.000      3.0000     8.21355E-03
 STRESS PERIOD TIME 2.59200E+05  4320.0      72.000      3.0000     8.21355E-03
         TOTAL TIME 8.12160E+06 1.35360E+05  2256.0      94.000     0.25736    
 UBDSV1 SAVING           STO-SS ON UNIT   1016 AT TIME STEP      2, STRESS PERIOD      5
 UBDSV1 SAVING           STO-SY ON UNIT   1016 AT TIME STEP      2, STRESS PERIOD      5
 UBDSV1 SAVING     FLOW-JA-FACE ON UNIT   1016 AT TIME STEP      2, STRESS PERIOD      5
 UBDSV06 SAVING              RCH IN MODEL TEST_TRANS       PACKAGE TEST_TRANS      CONNECTED TO MODEL TEST_TRANS       PACKAGE RCHA             ON UNIT   1016 AT TIME STEP      2, STRESS PERIOD      5
 UBDSV06 SAVING              CHD IN MODEL TEST_TRANS       PACKAGE TEST_TRANS      CONNECTED TO MODEL TEST_TRANS       PACKAGE CHD              ON UNIT   1016 AT TIME STEP      2, STRESS PERIOD      5

 HEAD WILL BE SAVED ON UNIT 1017 AT END OF TIME STEP    2, STRESS PERIOD    5
 UBDSV1 SAVING           STO-SS ON UNIT   1016 AT TIME STEP      3, STRESS PERIOD      5
 UBDSV1 SAVING           STO-SY ON UNIT   1016 AT TIME STEP      3, STRESS PERIOD      5
 UBDSV1 SAVING     FLOW-JA-FACE ON UNIT   1016 AT TIME STEP      3, STRESS PERIOD      5
 UBDSV06 SAVING              RCH IN MODEL TEST_TRANS       PACKAGE TEST_TRANS      CONNECTED TO MODEL TEST_TRANS       PACKAGE RCHA             ON UNIT   1016 AT TIME STEP      3, STRESS PERIOD      5
 UBDSV06 SAVING              CHD IN MODEL TEST_TRANS       PACKAGE TEST_TRANS      CONNECTED TO MODEL TEST_TRANS       PACKAGE CHD              ON UNIT   1016 AT TIME STEP      3, STRESS PERIOD      5

 HEAD WILL BE SAVED ON UNIT 1017 AT END OF TIME STEP    3, STRESS PERIOD    5
 UBDSV1 SAVING           STO-SS ON UNIT   1016 AT TIME STEP      4, STRESS PERIOD      5
 UBDSV1 SAVING           STO-SY ON UNIT   1016 AT TIME STEP      4, STRESS PERIOD      5
 UBDSV1 SAVING     FLOW-JA-FACE ON UNIT   1016 AT TIME STEP      4, STRESS PERIOD      5
 UBDSV06 SAVING              RCH IN MODEL TEST_TRANS       PACKAGE TEST_TRANS      CONNECTED TO MODEL TEST_TRANS       PACKAGE RCHA             ON UNIT   1016 AT TIME STEP      4, STRESS PERIOD      5
 UBDSV06 SAVING              CHD IN MODEL TEST_TRANS       PACKAGE TEST_TRANS      CONNECTED TO MODEL TEST_TRANS       PACKAGE CHD              ON UNIT   1016 AT TIME STEP      4, STRESS PERIOD      5

 HEAD WILL BE SAVED ON UNIT 1017 AT END OF TIME STEP    4, STRESS PERIOD    5
 UBDSV1 SAVING           STO-SS ON UNIT   1016 AT TIME STEP      5, STRESS PERIOD      5
 UBDSV1 SAVING           STO-SY ON UNIT   1016 AT TIME STEP      5, STRESS PERIOD      5
 UBDSV1 SAVING     FLOW-JA-FACE ON UNIT   1016 AT TIME STEP      5, STRESS PERIOD      5
 UBDSV06 SAVING              RCH IN MODEL TEST_TRANS       PACKAGE TEST_TRANS      CONNECTED TO MODEL TEST_TRANS       PACKAGE RCHA             ON UNIT   1016 AT TIME STEP      5, STRESS PERIOD      5
 UBDSV06 SAVING              CHD IN MODEL TEST_TRANS       PACKAGE TEST_TRANS      CONNECTED TO MODEL TEST_TRANS       PACKAGE CHD              ON UNIT   1016 AT TIME STEP      5, STRESS PERIOD      5

 HEAD WILL BE SAVED ON UNIT 1017 AT END OF TIME STEP    5, STRESS PERIOD    5
 UBDSV1 SAVING           STO-SS ON UNIT   1016 AT TIME STEP      6, STRESS PERIOD      5
 UBDSV1 SAVING           STO-SY ON UNIT   1016 AT TIME STEP      6, STRESS PERIOD      5
 UBDSV1 SAVING     FLOW-JA-FACE ON UNIT   1016 AT TIME STEP      6, STRESS PERIOD      5
 UBDSV06 SAVING              RCH IN MODEL TEST_TRANS       PACKAGE TEST_TRANS      CONNECTED TO MODEL TEST_TRANS       PACKAGE RCHA             ON UNIT   1016 AT TIME STEP      6, STRESS PERIOD      5
 UBDSV06 SAVING              CHD IN MODEL TEST_TRANS       PACKAGE TEST_TRANS      CONNECTED TO MODEL TEST_TRANS       PACKAGE CHD              ON UNIT   1016 AT TIME STEP      6, STRESS PERIOD      5

 HEAD WILL BE SAVED ON UNIT 1017 AT END OF TIME STEP    6, STRESS PERIOD    5
 UBDSV1 SAVING           STO-SS ON UNIT   1016 AT TIME STEP      7, STRESS PERIOD      5
 UBDSV1 SAVING           STO-SY ON UNIT   1016 AT TIME STEP      7, STRESS PERIOD      5
 UBDSV1 SAVING     FLOW-JA-FACE ON UNIT   1016 AT TIME STEP      7, STRESS PERIOD      5
 UBDSV06 SAVING              RCH IN MODEL TEST_TRANS       PACKAGE TEST_TRANS      CONNECTED TO MODEL TEST_TRANS       PACKAGE RCHA             ON UNIT   1016 AT TIME STEP      7, STRESS PERIOD      5
 UBDSV06 SAVING              CHD IN MODEL TEST_TRANS       PACKAGE TEST_TRANS      CONNECTED TO MODEL TEST_TRANS       PACKAGE CHD              ON UNIT   1016 AT TIME STEP      7, STRESS PERIOD      5

 HEAD WILL BE SAVED ON UNIT 1017 AT END OF TIME STEP    7, STRESS PERIOD    5
 UBDSV1 SAVING           STO-SS ON UNIT   1016 AT TIME STEP      8, STRESS PERIOD      5
 UBDSV1 SAVING           STO-SY ON UNIT   1016 AT TIME STEP      8, STRESS PERIOD      5
 UBDSV1 SAVING     FLOW-JA-FACE ON UNIT   1016 AT TIME STEP      8, STRESS PERIOD      5
 UBDSV06 SAVING              RCH IN MODEL TEST_TRANS       PACKAGE TEST_TRANS      CONNECTED TO MODEL TEST_TRANS       PACKAGE RCHA             ON UNIT   1016 AT TIME STEP      8, STRESS PERIOD      5
 UBDSV06 SAVING              CHD IN MODEL TEST_TRANS       PACKAGE TEST_TRANS      CONNECTED TO MODEL TEST_TRANS       PACKAGE CHD              ON UNIT   1016 AT TIME STEP      8, STRESS PERIOD      5

 HEAD WILL BE SAVED ON UNIT 1017 AT END OF TIME STEP    8, STRESS PERIOD    5
 UBDSV1 SAVING           STO-SS ON UNIT   1016 AT TIME STEP      9, STRESS PERIOD      5
 UBDSV1 SAVING           STO-SY ON UNIT   1016 AT TIME STEP      9, STRESS PERIOD      5
 UBDSV1 SAVING     FLOW-JA-FACE ON UNIT   1016 AT TIME STEP      9, STRESS PERIOD      5
 UBDSV06 SAVING              RCH IN MODEL TEST_TRANS       PACKAGE TEST_TRANS      CONNECTED TO MODEL TEST_TRANS       PACKAGE RCHA             ON UNIT   1016 AT TIME STEP      9, STRESS PERIOD      5
 UBDSV06 SAVING              CHD IN MODEL TEST_TRANS       PACKAGE TEST_TRANS      CONNECTED TO MODEL TEST_TRANS       PACKAGE CHD              ON UNIT   1016 AT TIME STEP      9, STRESS PERIOD      5

 HEAD WILL BE SAVED ON UNIT 1017 AT END OF TIME STEP    9, STRESS PERIOD    5
 UBDSV1 SAVING           STO-SS ON UNIT   1016 AT TIME STEP     10, STRESS PERIOD      5
 UBDSV1 SAVING           STO-SY ON UNIT   1016 AT TIME STEP     10, STRESS PERIOD      5
 UBDSV1 SAVING     FLOW-JA-FACE ON UNIT   1016 AT TIME STEP     10, STRESS PERIOD      5
 UBDSV06 SAVING              RCH IN MODEL TEST_TRANS       PACKAGE TEST_TRANS      CONNECTED TO MODEL TEST_TRANS       PACKAGE RCHA             ON UNIT   1016 AT TIME STEP     10, STRESS PERIOD      5
 UBDSV06 SAVING              CHD IN MODEL TEST_TRANS       PACKAGE TEST_TRANS      CONNECTED TO MODEL TEST_TRANS       PACKAGE CHD              ON UNIT   1016 AT TIME STEP     10, STRESS PERIOD      5
1
  HEAD IN LAYER   1 AT END OF TIME STEP  10 IN STRESS PERIOD    5
  ---------------------------------------------------------------------------

            1           2           3           4           5           6           7           8           9          10
           11          12          13          14          15          16          17          18          19          20
           21          22          23          24          25          26          27          28          29          30
 ........................................................................................................................
   1    28.14       28.14       28.13       28.11       28.09       28.06       28.03       27.99       27.95       27.90    
        27.85       27.79       27.72       27.65       27.57       27.48       27.39       27.29       27.18       27.06    
        26.93       26.80       26.65       26.49       26.32       26.13       25.92       25.69       25.43       25.13    
   2    28.14       28.14       28.13       28.11       28.09       28.06       28.03       27.99       27.95       27.90    
        27.85       27.79       27.72       27.65       27.57       27.48       27.39       27.29       27.18       27.06    
        26.93       26.80       26.65       26.49       26.32       26.13       25.92       25.69       25.43       25.13    
   3    28.14       28.14       28.13       28.11       28.09       28.06       28.03       27.99       27.95       27.90    
        27.85       27.79       27.72       27.65       27.57       27.48       27.39       27.29       27.18       27.06    
        26.93       26.80       26.65       26.49       26.32       26.13       25.92       25.69       25.43       25.13    
   4    28.14       28.14       28.13       28.11       28.09       28.06       28.03       27.99       27.95       27.90    
        27.85       27.79       27.72       27.65       27.57       27.48       27.39       27.29       27.18       27.06    
        26.93       26.80       26.65       26.49       26.32       26.13       25.92       25.69       25.43       25.13    
   5    28.14       28.14       28.13       28.11       28.09       28.06       28.03       27.99       27.95       27.90    
        27.85       27.79       27.72       27.65       27.57       27.48       27.39       27.29       27.18       27.06    
        26.93       26.80       26.65       26.49       26.32       26.13       25.92       25.69       25.43       25.13    
   6    28.14       28.14       28.13       28.11       28.09       28.06       28.03       27.99       27.95       27.90    
        27.85       27.79       27.72       27.65       27.57       27.48       27.39       27.29       27.18       27.06    
        26.93       26.80       26.65       26.49       26.32       26.13       25.92       25.69       25.43       25.13    
   7    28.14       28.14       28.13       28.11       28.09       28.06       28.03       27.99       27.95       27.90    
        27.85       27.79       27.72       27.65       27.57       27.48       27.39       27.29       27.18       27.06    
        26.93       26.80       26.65       26.49       26.32       26.13       25.92       25.69       25.43       25.13    
   8    28.14       28.14       28.13       28.11       28.09       28.06       28.03       27.99       27.95       27.90    
        27.85       27.79       27.72       27.65       27.57       27.48       27.39       27.29       27.18       27.06    
        26.93       26.80       26.65       26.49       26.32       26.13       25.92       25.69       25.43       25.13    
   9    28.14       28.14       28.13       28.11       28.09       28.06       28.03       27.99       27.95       27.90    
        27.85       27.79       27.72       27.65       27.57       27.48       27.39       27.29       27.18       27.06    
        26.93       26.80       26.65       26.49       26.32       26.13       25.92       25.69       25.43       25.13    
  10    28.14       28.14       28.13       28.11       28.09       28.06       28.03       27.99       27.95       27.90    
        27.85       27.79       27.72       27.65       27.57       27.48       27.39       27.29       27.18       27.06    
        26.93       26.80       26.65       26.49       26.32       26.13       25.92       25.69       25.43       25.13    
  11    28.14       28.14       28.13       28.11       28.09       28.06       28.03       27.99       27.95       27.90    
        27.85       27.79       27.72       27.65       27.57       27.48       27.39       27.29       27.18       27.06    
        26.93       26.80       26.65       26.49       26.32       26.13       25.92       25.69       25.43       25.13    
  12    28.14       28.14       28.13       28.11       28.09       28.06       28.03       27.99       27.95       27.90    
        27.85       27.79       27.72       27.65       27.57       27.48       27.39       27.29       27.18       27.06    
        26.93       26.80       26.65       26.49       26.32       26.13       25.92       25.69       25.43       25.13    
  13    28.14       28.14       28.13       28.11       28.09       28.06       28.03       27.99       27.95       27.90    
        27.85       27.79       27.72       27.65       27.57       27.48       27.39       27.29       27.18       27.06    
        26.93       26.80       26.65       26.49       26.32       26.13       25.92       25.69       25.43       25.13    
  14    28.14       28.14       28.13       28.11       28.09       28.06       28.03       27.99       27.95       27.90    
        27.85       27.79       27.72       27.65       27.57       27.48       27.39       27.29       27.18       27.06    
        26.93       26.80       26.65       26.49       26.32       26.13       25.92       25.69       25.43       25.13    
  15    28.14       28.14       28.13       28.11       28.09       28.06       28.03       27.99       27.95       27.90    
        27.85       27.79       27.72       27.65       27.57       27.48       27.39       27.29       27.18       27.06    
        26.93       26.80       26.65       26.49       26.32       26.13       25.92       25.69       25.43       25.13    
  16    28.14       28.14       28.13       28.11       28.09       28.06       28.03       27.99       27.95       27.90    
        27.85       27.79       27.72       27.65       27.57       27.48       27.39       27.29       27.18       27.06    
        26.93       26.80       26.65       26.49       26.32       26.13       25.92       25.69       25.43       25.13    
  17    28.14       28.14       28.13       28.11       28.09       28.06       28.03       27.99       27.95       27.90    
        27.85       27.79       27.72       27.65       27.57       27.48       27.39       27.29       27.18       27.06    
        26.93       26.80       26.65       26.49       26.32       26.13       25.92       25.69       25.43       25.13    
  18    28.14       28.14       28.13       28.11       28.09       28.06       28.03       27.99       27.95       27.90    
        27.85       27.79       27.72       27.65       27.57       27.48       27.39       27.29       27.18       27.06    
        26.93       26.80       26.65       26.49       26.32       26.13       25.92       25.69       25.43       25.13    
  19    28.14       28.14       28.13       28.11       28.09       28.06       28.03       27.99       27.95       27.90    
        27.85       27.79       27.72       27.65       27.57       27.48       27.39       27.29       27.18       27.06    
        26.93       26.80       26.65       26.49       26.32       26.13       25.92       25.69       25.43       25.13    
  20    28.14       28.14       28.13       28.11       28.09       28.06       28.03       27.99       27.95       27.90    
        27.85       27.79       27.72       27.65       27.57       27.48       27.39       27.29       27.18       27.06    
        26.93       26.80       26.65       26.49       26.32       26.13       25.92       25.69       25.43       25.13    
  21    28.14       28.14       28.13       28.11       28.09       28.06       28.03       27.99       27.95       27.90    
        27.85       27.79       27.72       27.65       27.57       27.48       27.39       27.29       27.18       27.06    
        26.93       26.80       26.65       26.49       26.32       26.13       25.92       25.69       25.43       25.13    
  22    28.14       28.14       28.13       28.11       28.09       28.06       28.03       27.99       27.95       27.90    
        27.85       27.79       27.72       27.65       27.57       27.48       27.39       27.29       27.18       27.06    
        26.93       26.80       26.65       26.49       26.32       26.13       25.92       25.69       25.43       25.13    
  23    28.14       28.14       28.13       28.11       28.09       28.06       28.03       27.99       27.95       27.90    
        27.85       27.79       27.72       27.65       27.57       27.48       27.39       27.29       27.18       27.06    
        26.93       26.80       26.65       26.49       26.32       26.13       25.92       25.69       25.43       25.13    
  24    28.14       28.14       28.13       28.11       28.09       28.06       28.03       27.99       27.95       27.90    
        27.85       27.79       27.72       27.65       27.57       27.48       27.39       27.29       27.18       27.06    
        26.93       26.80       26.65       26.49       26.32       26.13       25.92       25.69       25.43       25.13    
  25    28.14       28.14       28.13       28.11       28.09       28.06       28.03       27.99       27.95       27.90    
        27.85       27.79       27.72       27.65       27.57       27.48       27.39       27.29       27.18       27.06    
        26.93       26.80       26.65       26.49       26.32       26.13       25.92       25.69       25.43       25.13    
  26    28.14       28.14       28.13       28.11       28.09       28.06       28.03       27.99       27.95       27.90    
        27.85       27.79       27.72       27.65       27.57       27.48       27.39       27.29       27.18       27.06    
        26.93       26.80       26.65       26.49       26.32       26.13       25.92       25.69       25.43       25.13    
  27    28.14       28.14       28.13       28.11       28.09       28.06       28.03       27.99       27.95       27.90    
        27.85       27.79       27.72       27.65       27.57       27.48       27.39       27.29       27.18       27.06    
        26.93       26.80       26.65       26.49       26.32       26.13       25.92       25.69       25.43       25.13    
  28    28.14       28.14       28.13       28.11       28.09       28.06       28.03       27.99       27.95       27.90    
        27.85       27.79       27.72       27.65       27.57       27.48       27.39       27.29       27.18       27.06    
        26.93       26.80       26.65       26.49       26.32       26.13       25.92       25.69       25.43       25.13    
  29    28.14       28.14       28.13       28.11       28.09       28.06       28.03       27.99       27.95       27.90    
        27.85       27.79       27.72       27.65       27.57       27.48       27.39       27.29       27.18       27.06    
        26.93       26.80       26.65       26.49       26.32       26.13       25.92       25.69       25.43       25.13    
  30    28.14       28.14       28.13       28.11       28.09       28.06       28.03       27.99       27.95       27.90    
        27.85       27.79       27.72       27.65       27.57       27.48       27.39       27.29       27.18       27.06    
        26.93       26.80       26.65       26.49       26.32       26.13       25.92       25.69       25.43       25.13    

 HEAD WILL BE SAVED ON UNIT 1017 AT END OF TIME STEP   10, STRESS PERIOD    5


  VOLUME BUDGET FOR ENTIRE MODEL AT END OF TIME STEP   10, STRESS PERIOD   5
  ---------------------------------------------------------------------------------------------------

     CUMULATIVE VOLUME      L**3       RATES FOR THIS TIME STEP      L**3/T          PACKAGE NAME    
     ------------------                 ------------------------                     ----------------

           IN:                                      IN:
           ---                                      ---
              STO-SS =           6.9764                STO-SS =           0.1104     STORAGE         
              STO-SY =        4275.1050                STO-SY =          68.5483     STORAGE         
                 RCH =       22763.0219                   RCH =         107.2606     RCHA            
                 CHD =           0.0000                   CHD =           0.0000     CHD             

            TOTAL IN =       27045.1033              TOTAL IN =         175.9193

          OUT:                                     OUT:
          ----                                     ----
              STO-SS =           3.4645                STO-SS =           0.0000     STORAGE         
              STO-SY =        2259.6059                STO-SY =           0.0000     STORAGE         
                 RCH =           0.0000                   RCH =           0.0000     RCHA            
                 CHD =       24781.8813                   CHD =         175.9144     CHD             

           TOTAL OUT =       27044.9518             TOTAL OUT =         175.9144

            IN - OUT =           0.1515              IN - OUT =       4.8953E-03

 PERCENT DISCREPANCY =           0.00     PERCENT DISCREPANCY =           0.00




         TIME SUMMARY AT END OF TIME STEP   10 IN STRESS PERIOD    5
                    SECONDS     MINUTES      HOURS       DAYS        YEARS
                    -----------------------------------------------------------
   TIME STEP LENGTH 2.59200E+05  4320.0      72.000      3.0000     8.21355E-03
 STRESS PERIOD TIME 2.59200E+06  43200.      720.00      30.000     8.21355E-02
         TOTAL TIME 1.04544E+07 1.74240E+05  2904.0      121.00     0.33128    

 OUTPUT CONTROL FOR STRESS PERIOD 6 IS REPEATED USING SETTINGS FROM A PREVIOUS STRESS PERIOD.


 STRESS PERIOD 6 IS TRANSIENT


                 RECHARGE =  0.8219178E-03
 UBDSV1 SAVING           STO-SS ON UNIT   1016 AT TIME STEP      1, STRESS PERIOD      6
 UBDSV1 SAVING           STO-SY ON UNIT   1016 AT TIME STEP      1, STRESS PERIOD      6
 UBDSV1 SAVING     FLOW-JA-FACE ON UNIT   1016 AT TIME STEP      1, STRESS PERIOD      6
 UBDSV06 SAVING              RCH IN MODEL TEST_TRANS       PACKAGE TEST_TRANS      CONNECTED TO MODEL TEST_TRANS       PACKAGE RCHA             ON UNIT   1016 AT TIME STEP      1, STRESS PERIOD      6
 UBDSV06 SAVING              CHD IN MODEL TEST_TRANS       PACKAGE TEST_TRANS      CONNECTED TO MODEL TEST_TRANS       PACKAGE CHD              ON UNIT   1016 AT TIME STEP      1, STRESS PERIOD      6
1
  HEAD IN LAYER   1 AT END OF TIME STEP   1 IN STRESS PERIOD    6
  ---------------------------------------------------------------------------

            1           2           3           4           5           6           7           8           9          10
           11          12          13          14          15          16          17          18          19          20
           21          22          23          24          25          26          27          28          29          30
 ........................................................................................................................
   1    28.12       28.12       28.11       28.09       28.07       28.04       28.01       27.97       27.93       27.88    
        27.83       27.77       27.70       27.63       27.55       27.47       27.37       27.27       27.17       27.05    
        26.93       26.81       26.67       26.54       26.41       26.29       26.20       26.18       26.28       26.56    
   2    28.12       28.12       28.11       28.09       28.07       28.04       28.01       27.97       27.93       27.88    
        27.83       27.77       27.70       27.63       27.55       27.47       27.37       27.27       27.17       27.05    
        26.93       26.81       26.67       26.54       26.41       26.29       26.20       26.18       26.28       26.56    
   3    28.12       28.12       28.11       28.09       28.07       28.04       28.01       27.97       27.93       27.88    
        27.83       27.77       27.70       27.63       27.55       27.47       27.37       27.27       27.17       27.05    
        26.93       26.81       26.67       26.54       26.41       26.29       26.20       26.18       26.28       26.56    
   4    28.12       28.12       28.11       28.09       28.07       28.04       28.01       27.97       27.93       27.88    
        27.83       27.77       27.70       27.63       27.55       27.47       27.37       27.27       27.17       27.05    
        26.93       26.81       26.67       26.54       26.41       26.29       26.20       26.18       26.28       26.56    
   5    28.12       28.12       28.11       28.09       28.07       28.04       28.01       27.97       27.93       27.88    
        27.83       27.77       27.70       27.63       27.55       27.47       27.37       27.27       27.17       27.05    
        26.93       26.81       26.67       26.54       26.41       26.29       26.20       26.18       26.28       26.56    
   6    28.12       28.12       28.11       28.09       28.07       28.04       28.01       27.97       27.93       27.88    
        27.83       27.77       27.70       27.63       27.55       27.47       27.37       27.27       27.17       27.05    
        26.93       26.81       26.67       26.54       26.41       26.29       26.20       26.18       26.28       26.56    
   7    28.12       28.12       28.11       28.09       28.07       28.04       28.01       27.97       27.93       27.88    
        27.83       27.77       27.70       27.63       27.55       27.47       27.37       27.27       27.17       27.05    
        26.93       26.81       26.67       26.54       26.41       26.29       26.20       26.18       26.28       26.56    
   8    28.12       28.12       28.11       28.09       28.07       28.04       28.01       27.97       27.93       27.88    
        27.83       27.77       27.70       27.63       27.55       27.47       27.37       27.27       27.17       27.05    
        26.93       26.81       26.67       26.54       26.41       26.29       26.20       26.18       26.28       26.56    
   9    28.12       28.12       28.11       28.09       28.07       28.04       28.01       27.97       27.93       27.88    
        27.83       27.77       27.70       27.63       27.55       27.47       27.37       27.27       27.17       27.05    
        26.93       26.81       26.67       26.54       26.41       26.29       26.20       26.18       26.28       26.56    
  10    28.12       28.12       28.11       28.09       28.07       28.04       28.01       27.97       27.93       27.88    
        27.83       27.77       27.70       27.63       27.55       27.47       27.37       27.27       27.17       27.05    
        26.93       26.81       26.67       26.54       26.41       26.29       26.20       26.18       26.28       26.56    
  11    28.12       28.12       28.11       28.09       28.07       28.04       28.01       27.97       27.93       27.88    
        27.83       27.77       27.70       27.63       27.55       27.47       27.37       27.27       27.17       27.05    
        26.93       26.81       26.67       26.54       26.41       26.29       26.20       26.18       26.28       26.56    
  12    28.12       28.12       28.11       28.09       28.07       28.04       28.01       27.97       27.93       27.88    
        27.83       27.77       27.70       27.63       27.55       27.47       27.37       27.27       27.17       27.05    
        26.93       26.81       26.67       26.54       26.41       26.29       26.20       26.18       26.28       26.56    
  13    28.12       28.12       28.11       28.09       28.07       28.04       28.01       27.97       27.93       27.88    
        27.83       27.77       27.70       27.63       27.55       27.47       27.37       27.27       27.17       27.05    
        26.93       26.81       26.67       26.54       26.41       26.29       26.20       26.18       26.28       26.56    
  14    28.12       28.12       28.11       28.09       28.07       28.04       28.01       27.97       27.93       27.88    
        27.83       27.77       27.70       27.63       27.55       27.47       27.37       27.27       27.17       27.05    
        26.93       26.81       26.67       26.54       26.41       26.29       26.20       26.18       26.28       26.56    
  15    28.12       28.12       28.11       28.09       28.07       28.04       28.01       27.97       27.93       27.88    
        27.83       27.77       27.70       27.63       27.55       27.47       27.37       27.27       27.17       27.05    
        26.93       26.81       26.67       26.54       26.41       26.29       26.20       26.18       26.28       26.56    
  16    28.12       28.12       28.11       28.09       28.07       28.04       28.01       27.97       27.93       27.88    
        27.83       27.77       27.70       27.63       27.55       27.47       27.37       27.27       27.17       27.05    
        26.93       26.81       26.67       26.54       26.41       26.29       26.20       26.18       26.28       26.56    
  17    28.12       28.12       28.11       28.09       28.07       28.04       28.01       27.97       27.93       27.88    
        27.83       27.77       27.70       27.63       27.55       27.47       27.37       27.27       27.17       27.05    
        26.93       26.81       26.67       26.54       26.41       26.29       26.20       26.18       26.28       26.56    
  18    28.12       28.12       28.11       28.09       28.07       28.04       28.01       27.97       27.93       27.88    
        27.83       27.77       27.70       27.63       27.55       27.47       27.37       27.27       27.17       27.05    
        26.93       26.81       26.67       26.54       26.41       26.29       26.20       26.18       26.28       26.56    
  19    28.12       28.12       28.11       28.09       28.07       28.04       28.01       27.97       27.93       27.88    
        27.83       27.77       27.70       27.63       27.55       27.47       27.37       27.27       27.17       27.05    
        26.93       26.81       26.67       26.54       26.41       26.29       26.20       26.18       26.28       26.56    
  20    28.12       28.12       28.11       28.09       28.07       28.04       28.01       27.97       27.93       27.88    
        27.83       27.77       27.70       27.63       27.55       27.47       27.37       27.27       27.17       27.05    
        26.93       26.81       26.67       26.54       26.41       26.29       26.20       26.18       26.28       26.56    
  21    28.12       28.12       28.11       28.09       28.07       28.04       28.01       27.97       27.93       27.88    
        27.83       27.77       27.70       27.63       27.55       27.47       27.37       27.27       27.17       27.05    
        26.93       26.81       26.67       26.54       26.41       26.29       26.20       26.18       26.28       26.56    
  22    28.12       28.12       28.11       28.09       28.07       28.04       28.01       27.97       27.93       27.88    
        27.83       27.77       27.70       27.63       27.55       27.47       27.37       27.27       27.17       27.05    
        26.93       26.81       26.67       26.54       26.41       26.29       26.20       26.18       26.28       26.56    
  23    28.12       28.12       28.11       28.09       28.07       28.04       28.01       27.97       27.93       27.88    
        27.83       27.77       27.70       27.63       27.55       27.47       27.37       27.27       27.17       27.05    
        26.93       26.81       26.67       26.54       26.41       26.29       26.20       26.18       26.28       26.56    
  24    28.12       28.12       28.11       28.09       28.07       28.04       28.01       27.97       27.93       27.88    
        27.83       27.77       27.70       27.63       27.55       27.47       27.37       27.27       27.17       27.05    
        26.93       26.81       26.67       26.54       26.41       26.29       26.20       26.18       26.28       26.56    
  25    28.12       28.12       28.11       28.09       28.07       28.04       28.01       27.97       27.93       27.88    
        27.83       27.77       27.70       27.63       27.55       27.47       27.37       27.27       27.17       27.05    
        26.93       26.81       26.67       26.54       26.41       26.29       26.20       26.18       26.28       26.56    
  26    28.12       28.12       28.11       28.09       28.07       28.04       28.01       27.97       27.93       27.88    
        27.83       27.77       27.70       27.63       27.55       27.47       27.37       27.27       27.17       27.05    
        26.93       26.81       26.67       26.54       26.41       26.29       26.20       26.18       26.28       26.56    
  27    28.12       28.12       28.11       28.09       28.07       28.04       28.01       27.97       27.93       27.88    
        27.83       27.77       27.70       27.63       27.55       27.47       27.37       27.27       27.17       27.05    
        26.93       26.81       26.67       26.54       26.41       26.29       26.20       26.18       26.28       26.56    
  28    28.12       28.12       28.11       28.09       28.07       28.04       28.01       27.97       27.93       27.88    
        27.83       27.77       27.70       27.63       27.55       27.47       27.37       27.27       27.17       27.05    
        26.93       26.81       26.67       26.54       26.41       26.29       26.20       26.18       26.28       26.56    
  29    28.12       28.12       28.11       28.09       28.07       28.04       28.01       27.97       27.93       27.88    
        27.83       27.77       27.70       27.63       27.55       27.47       27.37       27.27       27.17       27.05    
        26.93       26.81       26.67       26.54       26.41       26.29       26.20       26.18       26.28       26.56    
  30    28.12       28.12       28.11       28.09       28.07       28.04       28.01       27.97       27.93       27.88    
        27.83       27.77       27.70       27.63       27.55       27.47       27.37       27.27       27.17       27.05    
        26.93       26.81       26.67       26.54       26.41       26.29       26.20       26.18       26.28       26.56    

 HEAD WILL BE SAVED ON UNIT 1017 AT END OF TIME STEP    1, STRESS PERIOD    6



         TIME SUMMARY AT END OF TIME STEP    1 IN STRESS PERIOD    6
                    SECONDS     MINUTES      HOURS       DAYS        YEARS
                    -----------------------------------------------------------
   TIME STEP LENGTH 2.59200E+05  4320.0      72.000      3.0000     8.21355E-03
 STRESS PERIOD TIME 2.59200E+05  4320.0      72.000      3.0000     8.21355E-03
         TOTAL TIME 1.07136E+07 1.78560E+05  2976.0      124.00     0.33949    
 UBDSV1 SAVING           STO-SS ON UNIT   1016 AT TIME STEP      2, STRESS PERIOD      6
 UBDSV1 SAVING           STO-SY ON UNIT   1016 AT TIME STEP      2, STRESS PERIOD      6
 UBDSV1 SAVING     FLOW-JA-FACE ON UNIT   1016 AT TIME STEP      2, STRESS PERIOD      6
 UBDSV06 SAVING              RCH IN MODEL TEST_TRANS       PACKAGE TEST_TRANS      CONNECTED TO MODEL TEST_TRANS       PACKAGE RCHA             ON UNIT   1016 AT TIME STEP      2, STRESS PERIOD      6
 UBDSV06 SAVING              CHD IN MODEL TEST_TRANS       PACKAGE TEST_TRANS      CONNECTED TO MODEL TEST_TRANS       PACKAGE CHD              ON UNIT   1016 AT TIME STEP      2, STRESS PERIOD      6

 HEAD WILL BE SAVED ON UNIT 1017 AT END OF TIME STEP    2, STRESS PERIOD    6
 UBDSV1 SAVING           STO-SS ON UNIT   1016 AT TIME STEP      3, STRESS PERIOD      6
 UBDSV1 SAVING           STO-SY ON UNIT   1016 AT TIME STEP      3, STRESS PERIOD      6
 UBDSV1 SAVING     FLOW-JA-FACE ON UNIT   1016 AT TIME STEP      3, STRESS PERIOD      6
 UBDSV06 SAVING              RCH IN MODEL TEST_TRANS       PACKAGE TEST_TRANS      CONNECTED TO MODEL TEST_TRANS       PACKAGE RCHA             ON UNIT   1016 AT TIME STEP      3, STRESS PERIOD      6
 UBDSV06 SAVING              CHD IN MODEL TEST_TRANS       PACKAGE TEST_TRANS      CONNECTED TO MODEL TEST_TRANS       PACKAGE CHD              ON UNIT   1016 AT TIME STEP      3, STRESS PERIOD      6

 HEAD WILL BE SAVED ON UNIT 1017 AT END OF TIME STEP    3, STRESS PERIOD    6
 UBDSV1 SAVING           STO-SS ON UNIT   1016 AT TIME STEP      4, STRESS PERIOD      6
 UBDSV1 SAVING           STO-SY ON UNIT   1016 AT TIME STEP      4, STRESS PERIOD      6
 UBDSV1 SAVING     FLOW-JA-FACE ON UNIT   1016 AT TIME STEP      4, STRESS PERIOD      6
 UBDSV06 SAVING              RCH IN MODEL TEST_TRANS       PACKAGE TEST_TRANS      CONNECTED TO MODEL TEST_TRANS       PACKAGE RCHA             ON UNIT   1016 AT TIME STEP      4, STRESS PERIOD      6
 UBDSV06 SAVING              CHD IN MODEL TEST_TRANS       PACKAGE TEST_TRANS      CONNECTED TO MODEL TEST_TRANS       PACKAGE CHD              ON UNIT   1016 AT TIME STEP      4, STRESS PERIOD      6

 HEAD WILL BE SAVED ON UNIT 1017 AT END OF TIME STEP    4, STRESS PERIOD    6
 UBDSV1 SAVING           STO-SS ON UNIT   1016 AT TIME STEP      5, STRESS PERIOD      6
 UBDSV1 SAVING           STO-SY ON UNIT   1016 AT TIME STEP      5, STRESS PERIOD      6
 UBDSV1 SAVING     FLOW-JA-FACE ON UNIT   1016 AT TIME STEP      5, STRESS PERIOD      6
 UBDSV06 SAVING              RCH IN MODEL TEST_TRANS       PACKAGE TEST_TRANS      CONNECTED TO MODEL TEST_TRANS       PACKAGE RCHA             ON UNIT   1016 AT TIME STEP      5, STRESS PERIOD      6
 UBDSV06 SAVING              CHD IN MODEL TEST_TRANS       PACKAGE TEST_TRANS      CONNECTED TO MODEL TEST_TRANS       PACKAGE CHD              ON UNIT   1016 AT TIME STEP      5, STRESS PERIOD      6

 HEAD WILL BE SAVED ON UNIT 1017 AT END OF TIME STEP    5, STRESS PERIOD    6
 UBDSV1 SAVING           STO-SS ON UNIT   1016 AT TIME STEP      6, STRESS PERIOD      6
 UBDSV1 SAVING           STO-SY ON UNIT   1016 AT TIME STEP      6, STRESS PERIOD      6
 UBDSV1 SAVING     FLOW-JA-FACE ON UNIT   1016 AT TIME STEP      6, STRESS PERIOD      6
 UBDSV06 SAVING              RCH IN MODEL TEST_TRANS       PACKAGE TEST_TRANS      CONNECTED TO MODEL TEST_TRANS       PACKAGE RCHA             ON UNIT   1016 AT TIME STEP      6, STRESS PERIOD      6
 UBDSV06 SAVING              CHD IN MODEL TEST_TRANS       PACKAGE TEST_TRANS      CONNECTED TO MODEL TEST_TRANS       PACKAGE CHD              ON UNIT   1016 AT TIME STEP      6, STRESS PERIOD      6

 HEAD WILL BE SAVED ON UNIT 1017 AT END OF TIME STEP    6, STRESS PERIOD    6
 UBDSV1 SAVING           STO-SS ON UNIT   1016 AT TIME STEP      7, STRESS PERIOD      6
 UBDSV1 SAVING           STO-SY ON UNIT   1016 AT TIME STEP      7, STRESS PERIOD      6
 UBDSV1 SAVING     FLOW-JA-FACE ON UNIT   1016 AT TIME STEP      7, STRESS PERIOD      6
 UBDSV06 SAVING              RCH IN MODEL TEST_TRANS       PACKAGE TEST_TRANS      CONNECTED TO MODEL TEST_TRANS       PACKAGE RCHA             ON UNIT   1016 AT TIME STEP      7, STRESS PERIOD      6
 UBDSV06 SAVING              CHD IN MODEL TEST_TRANS       PACKAGE TEST_TRANS      CONNECTED TO MODEL TEST_TRANS       PACKAGE CHD              ON UNIT   1016 AT TIME STEP      7, STRESS PERIOD      6

 HEAD WILL BE SAVED ON UNIT 1017 AT END OF TIME STEP    7, STRESS PERIOD    6
 UBDSV1 SAVING           STO-SS ON UNIT   1016 AT TIME STEP      8, STRESS PERIOD      6
 UBDSV1 SAVING           STO-SY ON UNIT   1016 AT TIME STEP      8, STRESS PERIOD      6
 UBDSV1 SAVING     FLOW-JA-FACE ON UNIT   1016 AT TIME STEP      8, STRESS PERIOD      6
 UBDSV06 SAVING              RCH IN MODEL TEST_TRANS       PACKAGE TEST_TRANS      CONNECTED TO MODEL TEST_TRANS       PACKAGE RCHA             ON UNIT   1016 AT TIME STEP      8, STRESS PERIOD      6
 UBDSV06 SAVING              CHD IN MODEL TEST_TRANS       PACKAGE TEST_TRANS      CONNECTED TO MODEL TEST_TRANS       PACKAGE CHD              ON UNIT   1016 AT TIME STEP      8, STRESS PERIOD      6

 HEAD WILL BE SAVED ON UNIT 1017 AT END OF TIME STEP    8, STRESS PERIOD    6
 UBDSV1 SAVING           STO-SS ON UNIT   1016 AT TIME STEP      9, STRESS PERIOD      6
 UBDSV1 SAVING           STO-SY ON UNIT   1016 AT TIME STEP      9, STRESS PERIOD      6
 UBDSV1 SAVING     FLOW-JA-FACE ON UNIT   1016 AT TIME STEP      9, STRESS PERIOD      6
 UBDSV06 SAVING              RCH IN MODEL TEST_TRANS       PACKAGE TEST_TRANS      CONNECTED TO MODEL TEST_TRANS       PACKAGE RCHA             ON UNIT   1016 AT TIME STEP      9, STRESS PERIOD      6
 UBDSV06 SAVING              CHD IN MODEL TEST_TRANS       PACKAGE TEST_TRANS      CONNECTED TO MODEL TEST_TRANS       PACKAGE CHD              ON UNIT   1016 AT TIME STEP      9, STRESS PERIOD      6

 HEAD WILL BE SAVED ON UNIT 1017 AT END OF TIME STEP    9, STRESS PERIOD    6
 UBDSV1 SAVING           STO-SS ON UNIT   1016 AT TIME STEP     10, STRESS PERIOD      6
 UBDSV1 SAVING           STO-SY ON UNIT   1016 AT TIME STEP     10, STRESS PERIOD      6
 UBDSV1 SAVING     FLOW-JA-FACE ON UNIT   1016 AT TIME STEP     10, STRESS PERIOD      6
 UBDSV06 SAVING              RCH IN MODEL TEST_TRANS       PACKAGE TEST_TRANS      CONNECTED TO MODEL TEST_TRANS       PACKAGE RCHA             ON UNIT   1016 AT TIME STEP     10, STRESS PERIOD      6
 UBDSV06 SAVING              CHD IN MODEL TEST_TRANS       PACKAGE TEST_TRANS      CONNECTED TO MODEL TEST_TRANS       PACKAGE CHD              ON UNIT   1016 AT TIME STEP     10, STRESS PERIOD      6
1
  HEAD IN LAYER   1 AT END OF TIME STEP  10 IN STRESS PERIOD    6
  ---------------------------------------------------------------------------

            1           2           3           4           5           6           7           8           9          10
           11          12          13          14          15          16          17          18          19          20
           21          22          23          24          25          26          27          28          29          30
 ........................................................................................................................
   1    27.95       27.94       27.94       27.92       27.90       27.88       27.86       27.83       27.79       27.76    
        27.71       27.67       27.62       27.57       27.52       27.46       27.40       27.34       27.28       27.22    
        27.15       27.09       27.02       26.96       26.90       26.83       26.76       26.70       26.63       26.56    
   2    27.95       27.94       27.94       27.92       27.90       27.88       27.86       27.83       27.79       27.76    
        27.71       27.67       27.62       27.57       27.52       27.46       27.40       27.34       27.28       27.22    
        27.15       27.09       27.02       26.96       26.90       26.83       26.76       26.70       26.63       26.56    
   3    27.95       27.94       27.94       27.92       27.90       27.88       27.86       27.83       27.79       27.76    
        27.71       27.67       27.62       27.57       27.52       27.46       27.40       27.34       27.28       27.22    
        27.15       27.09       27.02       26.96       26.90       26.83       26.76       26.70       26.63       26.56    
   4    27.95       27.94       27.94       27.92       27.90       27.88       27.86       27.83       27.79       27.76    
        27.71       27.67       27.62       27.57       27.52       27.46       27.40       27.34       27.28       27.22    
        27.15       27.09       27.02       26.96       26.90       26.83       26.76       26.70       26.63       26.56    
   5    27.95       27.94       27.94       27.92       27.90       27.88       27.86       27.83       27.79       27.76    
        27.71       27.67       27.62       27.57       27.52       27.46       27.40       27.34       27.28       27.22    
        27.15       27.09       27.02       26.96       26.90       26.83       26.76       26.70       26.63       26.56    
   6    27.95       27.94       27.94       27.92       27.90       27.88       27.86       27.83       27.79       27.76    
        27.71       27.67       27.62       27.57       27.52       27.46       27.40       27.34       27.28       27.22    
        27.15       27.09       27.02       26.96       26.90       26.83       26.76       26.70       26.63       26.56    
   7    27.95       27.94       27.94       27.92       27.90       27.88       27.86       27.83       27.79       27.76    
        27.71       27.67       27.62       27.57       27.52       27.46       27.40       27.34       27.28       27.22    
        27.15       27.09       27.02       26.96       26.90       26.83       26.76       26.70       26.63       26.56    
   8    27.95       27.94       27.94       27.92       27.90       27.88       27.86       27.83       27.79       27.76    
        27.71       27.67       27.62       27.57       27.52       27.46       27.40       27.34       27.28       27.22    
        27.15       27.09       27.02       26.96       26.90       26.83       26.76       26.70       26.63       26.56    
   9    27.95       27.94       27.94       27.92       27.90       27.88       27.86       27.83       27.79       27.76    
        27.71       27.67       27.62       27.57       27.52       27.46       27.40       27.34       27.28       27.22    
        27.15       27.09       27.02       26.96       26.90       26.83       26.76       26.70       26.63       26.56    
  10    27.95       27.94       27.94       27.92       27.90       27.88       27.86       27.83       27.79       27.76    
        27.71       27.67       27.62       27.57       27.52       27.46       27.40       27.34       27.28       27.22    
        27.15       27.09       27.02       26.96       26.90       26.83       26.76       26.70       26.63       26.56    
  11    27.95       27.94       27.94       27.92       27.90       27.88       27.86       27.83       27.79       27.76    
        27.71       27.67       27.62       27.57       27.52       27.46       27.40       27.34       27.28       27.22    
        27.15       27.09       27.02       26.96       26.90       26.83       26.76       26.70       26.63       26.56    
  12    27.95       27.94       27.94       27.92       27.90       27.88       27.86       27.83       27.79       27.76    
        27.71       27.67       27.62       27.57       27.52       27.46       27.40       27.34       27.28       27.22    
        27.15       27.09       27.02       26.96       26.90       26.83       26.76       26.70       26.63       26.56    
  13    27.95       27.94       27.94       27.92       27.90       27.88       27.86       27.83       27.79       27.76    
        27.71       27.67       27.62       27.57       27.52       27.46       27.40       27.34       27.28       27.22    
        27.15       27.09       27.02       26.96       26.90       26.83       26.76       26.70       26.63       26.56    
  14    27.95       27.94       27.94       27.92       27.90       27.88       27.86       27.83       27.79       27.76    
        27.71       27.67       27.62       27.57       27.52       27.46       27.40       27.34       27.28       27.22    
        27.15       27.09       27.02       26.96       26.90       26.83       26.76       26.70       26.63       26.56    
  15    27.95       27.94       27.94       27.92       27.90       27.88       27.86       27.83       27.79       27.76    
        27.71       27.67       27.62       27.57       27.52       27.46       27.40       27.34       27.28       27.22    
        27.15       27.09       27.02       26.96       26.90       26.83       26.76       26.70       26.63       26.56    
  16    27.95       27.94       27.94       27.92       27.90       27.88       27.86       27.83       27.79       27.76    
        27.71       27.67       27.62       27.57       27.52       27.46       27.40       27.34       27.28       27.22    
        27.15       27.09       27.02       26.96       26.90       26.83       26.76       26.70       26.63       26.56    
  17    27.95       27.94       27.94       27.92       27.90       27.88       27.86       27.83       27.79       27.76    
        27.71       27.67       27.62       27.57       27.52       27.46       27.40       27.34       27.28       27.22    
        27.15       27.09       27.02       26.96       26.90       26.83       26.76       26.70       26.63       26.56    
  18    27.95       27.94       27.94       27.92       27.90       27.88       27.86       27.83       27.79       27.76    
        27.71       27.67       27.62       27.57       27.52       27.46       27.40       27.34       27.28       27.22    
        27.15       27.09       27.02       26.96       26.90       26.83       26.76       26.70       26.63       26.56    
  19    27.95       27.94       27.94       27.92       27.90       27.88       27.86       27.83       27.79       27.76    
        27.71       27.67       27.62       27.57       27.52       27.46       27.40       27.34       27.28       27.22    
        27.15       27.09       27.02       26.96       26.90       26.83       26.76       26.70       26.63       26.56    
  20    27.95       27.94       27.94       27.92       27.90       27.88       27.86       27.83       27.79       27.76    
        27.71       27.67       27.62       27.57       27.52       27.46       27.40       27.34       27.28       27.22    
        27.15       27.09       27.02       26.96       26.90       26.83       26.76       26.70       26.63       26.56    
  21    27.95       27.94       27.94       27.92       27.90       27.88       27.86       27.83       27.79       27.76    
        27.71       27.67       27.62       27.57       27.52       27.46       27.40       27.34       27.28       27.22    
        27.15       27.09       27.02       26.96       26.90       26.83       26.76       26.70       26.63       26.56    
  22    27.95       27.94       27.94       27.92       27.90       27.88       27.86       27.83       27.79       27.76    
        27.71       27.67       27.62       27.57       27.52       27.46       27.40       27.34       27.28       27.22    
        27.15       27.09       27.02       26.96       26.90       26.83       26.76       26.70       26.63       26.56    
  23    27.95       27.94       27.94       27.92       27.90       27.88       27.86       27.83       27.79       27.76    
        27.71       27.67       27.62       27.57       27.52       27.46       27.40       27.34       27.28       27.22    
        27.15       27.09       27.02       26.96       26.90       26.83       26.76       26.70       26.63       26.56    
  24    27.95       27.94       27.94       27.92       27.90       27.88       27.86       27.83       27.79       27.76    
        27.71       27.67       27.62       27.57       27.52       27.46       27.40       27.34       27.28       27.22    
        27.15       27.09       27.02       26.96       26.90       26.83       26.76       26.70       26.63       26.56    
  25    27.95       27.94       27.94       27.92       27.90       27.88       27.86       27.83       27.79       27.76    
        27.71       27.67       27.62       27.57       27.52       27.46       27.40       27.34       27.28       27.22    
        27.15       27.09       27.02       26.96       26.90       26.83       26.76       26.70       26.63       26.56    
  26    27.95       27.94       27.94       27.92       27.90       27.88       27.86       27.83       27.79       27.76    
        27.71       27.67       27.62       27.57       27.52       27.46       27.40       27.34       27.28       27.22    
        27.15       27.09       27.02       26.96       26.90       26.83       26.76       26.70       26.63       26.56    
  27    27.95       27.94       27.94       27.92       27.90       27.88       27.86       27.83       27.79       27.76    
        27.71       27.67       27.62       27.57       27.52       27.46       27.40       27.34       27.28       27.22    
        27.15       27.09       27.02       26.96       26.90       26.83       26.76       26.70       26.63       26.56    
  28    27.95       27.94       27.94       27.92       27.90       27.88       27.86       27.83       27.79       27.76    
        27.71       27.67       27.62       27.57       27.52       27.46       27.40       27.34       27.28       27.22    
        27.15       27.09       27.02       26.96       26.90       26.83       26.76       26.70       26.63       26.56    
  29    27.95       27.94       27.94       27.92       27.90       27.88       27.86       27.83       27.79       27.76    
        27.71       27.67       27.62       27.57       27.52       27.46       27.40       27.34       27.28       27.22    
        27.15       27.09       27.02       26.96       26.90       26.83       26.76       26.70       26.63       26.56    
  30    27.95       27.94       27.94       27.92       27.90       27.88       27.86       27.83       27.79       27.76    
        27.71       27.67       27.62       27.57       27.52       27.46       27.40       27.34       27.28       27.22    
        27.15       27.09       27.02       26.96       26.90       26.83       26.76       26.70       26.63       26.56    

 HEAD WILL BE SAVED ON UNIT 1017 AT END OF TIME STEP   10, STRESS PERIOD    6


  VOLUME BUDGET FOR ENTIRE MODEL AT END OF TIME STEP   10, STRESS PERIOD   6
  ---------------------------------------------------------------------------------------------------

     CUMULATIVE VOLUME      L**3       RATES FOR THIS TIME STEP      L**3/T          PACKAGE NAME    
     ------------------                 ------------------------                     ----------------

           IN:                                      IN:
           ---                                      ---
              STO-SS =           9.3230                STO-SS =       4.7618E-02     STORAGE         
              STO-SY =        5707.2907                STO-SY =          29.0829     STORAGE         
                 RCH =       24908.2274                   RCH =          71.5068     RCHA            
                 CHD =        1052.4133                   CHD =           0.0000     CHD             

            TOTAL IN =       31677.2544              TOTAL IN =         100.6374

          OUT:                                     OUT:
          ----                                     ----
              STO-SS =           8.9556                STO-SS =       5.2224E-02     STORAGE         
              STO-SY =        5927.8056                STO-SY =          33.6101     STORAGE         
                 RCH =           0.0000                   RCH =           0.0000     RCHA            
                 CHD =       25740.3939                   CHD =          66.9791     CHD             

           TOTAL OUT =       31677.1550             TOTAL OUT =         100.6414

            IN - OUT =       9.9326E-02              IN - OUT =      -4.0485E-03

 PERCENT DISCREPANCY =           0.00     PERCENT DISCREPANCY =          -0.00




         TIME SUMMARY AT END OF TIME STEP   10 IN STRESS PERIOD    6
                    SECONDS     MINUTES      HOURS       DAYS        YEARS
                    -----------------------------------------------------------
   TIME STEP LENGTH 2.59200E+05  4320.0      72.000      3.0000     8.21355E-03
 STRESS PERIOD TIME 2.59200E+06  43200.      720.00      30.000     8.21355E-02
         TOTAL TIME 1.30464E+07 2.17440E+05  3624.0      151.00     0.41342    

 OUTPUT CONTROL FOR STRESS PERIOD 7 IS REPEATED USING SETTINGS FROM A PREVIOUS STRESS PERIOD.


 STRESS PERIOD 7 IS TRANSIENT


                 RECHARGE =  0.5479452E-03
 UBDSV1 SAVING           STO-SS ON UNIT   1016 AT TIME STEP      1, STRESS PERIOD      7
 UBDSV1 SAVING           STO-SY ON UNIT   1016 AT TIME STEP      1, STRESS PERIOD      7
 UBDSV1 SAVING     FLOW-JA-FACE ON UNIT   1016 AT TIME STEP      1, STRESS PERIOD      7
 UBDSV06 SAVING              RCH IN MODEL TEST_TRANS       PACKAGE TEST_TRANS      CONNECTED TO MODEL TEST_TRANS       PACKAGE RCHA             ON UNIT   1016 AT TIME STEP      1, STRESS PERIOD      7
 UBDSV06 SAVING              CHD IN MODEL TEST_TRANS       PACKAGE TEST_TRANS      CONNECTED TO MODEL TEST_TRANS       PACKAGE CHD              ON UNIT   1016 AT TIME STEP      1, STRESS PERIOD      7
1
  HEAD IN LAYER   1 AT END OF TIME STEP   1 IN STRESS PERIOD    7
  ---------------------------------------------------------------------------

            1           2           3           4           5           6           7           8           9          10
           11          12          13          14          15          16          17          18          19          20
           21          22          23          24          25          26          27          28          29          30
 ........................................................................................................................
   1    27.93       27.93       27.92       27.90       27.89       27.87       27.84       27.81       27.78       27.74    
        27.70       27.66       27.61       27.56       27.51       27.46       27.40       27.34       27.28       27.21    
        27.15       27.08       27.00       26.92       26.82       26.70       26.55       26.34       26.03       25.49    
   2    27.93       27.93       27.92       27.90       27.89       27.87       27.84       27.81       27.78       27.74    
        27.70       27.66       27.61       27.56       27.51       27.46       27.40       27.34       27.28       27.21    
        27.15       27.08       27.00       26.92       26.82       26.70       26.55       26.34       26.03       25.49    
   3    27.93       27.93       27.92       27.90       27.89       27.87       27.84       27.81       27.78       27.74    
        27.70       27.66       27.61       27.56       27.51       27.46       27.40       27.34       27.28       27.21    
        27.15       27.08       27.00       26.92       26.82       26.70       26.55       26.34       26.03       25.49    
   4    27.93       27.93       27.92       27.90       27.89       27.87       27.84       27.81       27.78       27.74    
        27.70       27.66       27.61       27.56       27.51       27.46       27.40       27.34       27.28       27.21    
        27.15       27.08       27.00       26.92       26.82       26.70       26.55       26.34       26.03       25.49    
   5    27.93       27.93       27.92       27.90       27.89       27.87       27.84       27.81       27.78       27.74    
        27.70       27.66       27.61       27.56       27.51       27.46       27.40       27.34       27.28       27.21    
        27.15       27.08       27.00       26.92       26.82       26.70       26.55       26.34       26.03       25.49    
   6    27.93       27.93       27.92       27.90       27.89       27.87       27.84       27.81       27.78       27.74    
        27.70       27.66       27.61       27.56       27.51       27.46       27.40       27.34       27.28       27.21    
        27.15       27.08       27.00       26.92       26.82       26.70       26.55       26.34       26.03       25.49    
   7    27.93       27.93       27.92       27.90       27.89       27.87       27.84       27.81       27.78       27.74    
        27.70       27.66       27.61       27.56       27.51       27.46       27.40       27.34       27.28       27.21    
        27.15       27.08       27.00       26.92       26.82       26.70       26.55       26.34       26.03       25.49    
   8    27.93       27.93       27.92       27.90       27.89       27.87       27.84       27.81       27.78       27.74    
        27.70       27.66       27.61       27.56       27.51       27.46       27.40       27.34       27.28       27.21    
        27.15       27.08       27.00       26.92       26.82       26.70       26.55       26.34       26.03       25.49    
   9    27.93       27.93       27.92       27.90       27.89       27.87       27.84       27.81       27.78       27.74    
        27.70       27.66       27.61       27.56       27.51       27.46       27.40       27.34       27.28       27.21    
        27.15       27.08       27.00       26.92       26.82       26.70       26.55       26.34       26.03       25.49    
  10    27.93       27.93       27.92       27.90       27.89       27.87       27.84       27.81       27.78       27.74    
        27.70       27.66       27.61       27.56       27.51       27.46       27.40       27.34       27.28       27.21    
        27.15       27.08       27.00       26.92       26.82       26.70       26.55       26.34       26.03       25.49    
  11    27.93       27.93       27.92       27.90       27.89       27.87       27.84       27.81       27.78       27.74    
        27.70       27.66       27.61       27.56       27.51       27.46       27.40       27.34       27.28       27.21    
        27.15       27.08       27.00       26.92       26.82       26.70       26.55       26.34       26.03       25.49    
  12    27.93       27.93       27.92       27.90       27.89       27.87       27.84       27.81       27.78       27.74    
        27.70       27.66       27.61       27.56       27.51       27.46       27.40       27.34       27.28       27.21    
        27.15       27.08       27.00       26.92       26.82       26.70       26.55       26.34       26.03       25.49    
  13    27.93       27.93       27.92       27.90       27.89       27.87       27.84       27.81       27.78       27.74    
        27.70       27.66       27.61       27.56       27.51       27.46       27.40       27.34       27.28       27.21    
        27.15       27.08       27.00       26.92       26.82       26.70       26.55       26.34       26.03       25.49    
  14    27.93       27.93       27.92       27.90       27.89       27.87       27.84       27.81       27.78       27.74    
        27.70       27.66       27.61       27.56       27.51       27.46       27.40       27.34       27.28       27.21    
        27.15       27.08       27.00       26.92       26.82       26.70       26.55       26.34       26.03       25.49    
  15    27.93       27.93       27.92       27.90       27.89       27.87       27.84       27.81       27.78       27.74    
        27.70       27.66       27.61       27.56       27.51       27.46       27.40       27.34       27.28       27.21    
        27.15       27.08       27.00       26.92       26.82       26.70       26.55       26.34       26.03       25.49    
  16    27.93       27.93       27.92       27.90       27.89       27.87       27.84       27.81       27.78       27.74    
        27.70       27.66       27.61       27.56       27.51       27.46       27.40       27.34       27.28       27.21    
        27.15       27.08       27.00       26.92       26.82       26.70       26.55       26.34       26.03       25.49    
  17    27.93       27.93       27.92       27.90       27.89       27.87       27.84       27.81       27.78       27.74    
        27.70       27.66       27.61       27.56       27.51       27.46       27.40       27.34       27.28       27.21    
        27.15       27.08       27.00       26.92       26.82       26.70       26.55       26.34       26.03       25.49    
  18    27.93       27.93       27.92       27.90       27.89       27.87       27.84       27.81       27.78       27.74    
        27.70       27.66       27.61       27.56       27.51       27.46       27.40       27.34       27.28       27.21    
        27.15       27.08       27.00       26.92       26.82       26.70       26.55       26.34       26.03       25.49    
  19    27.93       27.93       27.92       27.90       27.89       27.87       27.84       27.81       27.78       27.74    
        27.70       27.66       27.61       27.56       27.51       27.46       27.40       27.34       27.28       27.21    
        27.15       27.08       27.00       26.92       26.82       26.70       26.55       26.34       26.03       25.49    
  20    27.93       27.93       27.92       27.90       27.89       27.87       27.84       27.81       27.78       27.74    
        27.70       27.66       27.61       27.56       27.51       27.46       27.40       27.34       27.28       27.21    
        27.15       27.08       27.00       26.92       26.82       26.70       26.55       26.34       26.03       25.49    
  21    27.93       27.93       27.92       27.90       27.89       27.87       27.84       27.81       27.78       27.74    
        27.70       27.66       27.61       27.56       27.51       27.46       27.40       27.34       27.28       27.21    
        27.15       27.08       27.00       26.92       26.82       26.70       26.55       26.34       26.03       25.49    
  22    27.93       27.93       27.92       27.90       27.89       27.87       27.84       27.81       27.78       27.74    
        27.70       27.66       27.61       27.56       27.51       27.46       27.40       27.34       27.28       27.21    
        27.15       27.08       27.00       26.92       26.82       26.70       26.55       26.34       26.03       25.49    
  23    27.93       27.93       27.92       27.90       27.89       27.87       27.84       27.81       27.78       27.74    
        27.70       27.66       27.61       27.56       27.51       27.46       27.40       27.34       27.28       27.21    
        27.15       27.08       27.00       26.92       26.82       26.70       26.55       26.34       26.03       25.49    
  24    27.93       27.93       27.92       27.90       27.89       27.87       27.84       27.81       27.78       27.74    
        27.70       27.66       27.61       27.56       27.51       27.46       27.40       27.34       27.28       27.21    
        27.15       27.08       27.00       26.92       26.82       26.70       26.55       26.34       26.03       25.49    
  25    27.93       27.93       27.92       27.90       27.89       27.87       27.84       27.81       27.78       27.74    
        27.70       27.66       27.61       27.56       27.51       27.46       27.40       27.34       27.28       27.21    
        27.15       27.08       27.00       26.92       26.82       26.70       26.55       26.34       26.03       25.49    
  26    27.93       27.93       27.92       27.90       27.89       27.87       27.84       27.81       27.78       27.74    
        27.70       27.66       27.61       27.56       27.51       27.46       27.40       27.34       27.28       27.21    
        27.15       27.08       27.00       26.92       26.82       26.70       26.55       26.34       26.03       25.49    
  27    27.93       27.93       27.92       27.90       27.89       27.87       27.84       27.81       27.78       27.74    
        27.70       27.66       27.61       27.56       27.51       27.46       27.40       27.34       27.28       27.21    
        27.15       27.08       27.00       26.92       26.82       26.70       26.55       26.34       26.03       25.49    
  28    27.93       27.93       27.92       27.90       27.89       27.87       27.84       27.81       27.78       27.74    
        27.70       27.66       27.61       27.56       27.51       27.46       27.40       27.34       27.28       27.21    
        27.15       27.08       27.00       26.92       26.82       26.70       26.55       26.34       26.03       25.49    
  29    27.93       27.93       27.92       27.90       27.89       27.87       27.84       27.81       27.78       27.74    
        27.70       27.66       27.61       27.56       27.51       27.46       27.40       27.34       27.28       27.21    
        27.15       27.08       27.00       26.92       26.82       26.70       26.55       26.34       26.03       25.49    
  30    27.93       27.93       27.92       27.90       27.89       27.87       27.84       27.81       27.78       27.74    
        27.70       27.66       27.61       27.56       27.51       27.46       27.40       27.34       27.28       27.21    
        27.15       27.08       27.00       26.92       26.82       26.70       26.55       26.34       26.03       25.49    

 HEAD WILL BE SAVED ON UNIT 1017 AT END OF TIME STEP    1, STRESS PERIOD    7



         TIME SUMMARY AT END OF TIME STEP    1 IN STRESS PERIOD    7
                    SECONDS     MINUTES      HOURS       DAYS        YEARS
                    -----------------------------------------------------------
   TIME STEP LENGTH 2.59200E+05  4320.0      72.000      3.0000     8.21355E-03
 STRESS PERIOD TIME 2.59200E+05  4320.0      72.000      3.0000     8.21355E-03
         TOTAL TIME 1.33056E+07 2.21760E+05  3696.0      154.00     0.42163    
 UBDSV1 SAVING           STO-SS ON UNIT   1016 AT TIME STEP      2, STRESS PERIOD      7
 UBDSV1 SAVING           STO-SY ON UNIT   1016 AT TIME STEP      2, STRESS PERIOD      7
 UBDSV1 SAVING     FLOW-JA-FACE ON UNIT   1016 AT TIME STEP      2, STRESS PERIOD      7
 UBDSV06 SAVING              RCH IN MODEL TEST_TRANS       PACKAGE TEST_TRANS      CONNECTED TO MODEL TEST_TRANS       PACKAGE RCHA             ON UNIT   1016 AT TIME STEP      2, STRESS PERIOD      7
 UBDSV06 SAVING              CHD IN MODEL TEST_TRANS       PACKAGE TEST_TRANS      CONNECTED TO MODEL TEST_TRANS       PACKAGE CHD              ON UNIT   1016 AT TIME STEP      2, STRESS PERIOD      7

 HEAD WILL BE SAVED ON UNIT 1017 AT END OF TIME STEP    2, STRESS PERIOD    7
 UBDSV1 SAVING           STO-SS ON UNIT   1016 AT TIME STEP      3, STRESS PERIOD      7
 UBDSV1 SAVING           STO-SY ON UNIT   1016 AT TIME STEP      3, STRESS PERIOD      7
 UBDSV1 SAVING     FLOW-JA-FACE ON UNIT   1016 AT TIME STEP      3, STRESS PERIOD      7
 UBDSV06 SAVING              RCH IN MODEL TEST_TRANS       PACKAGE TEST_TRANS      CONNECTED TO MODEL TEST_TRANS       PACKAGE RCHA             ON UNIT   1016 AT TIME STEP      3, STRESS PERIOD      7
 UBDSV06 SAVING              CHD IN MODEL TEST_TRANS       PACKAGE TEST_TRANS      CONNECTED TO MODEL TEST_TRANS       PACKAGE CHD              ON UNIT   1016 AT TIME STEP      3, STRESS PERIOD      7

 HEAD WILL BE SAVED ON UNIT 1017 AT END OF TIME STEP    3, STRESS PERIOD    7
 UBDSV1 SAVING           STO-SS ON UNIT   1016 AT TIME STEP      4, STRESS PERIOD      7
 UBDSV1 SAVING           STO-SY ON UNIT   1016 AT TIME STEP      4, STRESS PERIOD      7
 UBDSV1 SAVING     FLOW-JA-FACE ON UNIT   1016 AT TIME STEP      4, STRESS PERIOD      7
 UBDSV06 SAVING              RCH IN MODEL TEST_TRANS       PACKAGE TEST_TRANS      CONNECTED TO MODEL TEST_TRANS       PACKAGE RCHA             ON UNIT   1016 AT TIME STEP      4, STRESS PERIOD      7
 UBDSV06 SAVING              CHD IN MODEL TEST_TRANS       PACKAGE TEST_TRANS      CONNECTED TO MODEL TEST_TRANS       PACKAGE CHD              ON UNIT   1016 AT TIME STEP      4, STRESS PERIOD      7

 HEAD WILL BE SAVED ON UNIT 1017 AT END OF TIME STEP    4, STRESS PERIOD    7
 UBDSV1 SAVING           STO-SS ON UNIT   1016 AT TIME STEP      5, STRESS PERIOD      7
 UBDSV1 SAVING           STO-SY ON UNIT   1016 AT TIME STEP      5, STRESS PERIOD      7
 UBDSV1 SAVING     FLOW-JA-FACE ON UNIT   1016 AT TIME STEP      5, STRESS PERIOD      7
 UBDSV06 SAVING              RCH IN MODEL TEST_TRANS       PACKAGE TEST_TRANS      CONNECTED TO MODEL TEST_TRANS       PACKAGE RCHA             ON UNIT   1016 AT TIME STEP      5, STRESS PERIOD      7
 UBDSV06 SAVING              CHD IN MODEL TEST_TRANS       PACKAGE TEST_TRANS      CONNECTED TO MODEL TEST_TRANS       PACKAGE CHD              ON UNIT   1016 AT TIME STEP      5, STRESS PERIOD      7

 HEAD WILL BE SAVED ON UNIT 1017 AT END OF TIME STEP    5, STRESS PERIOD    7
 UBDSV1 SAVING           STO-SS ON UNIT   1016 AT TIME STEP      6, STRESS PERIOD      7
 UBDSV1 SAVING           STO-SY ON UNIT   1016 AT TIME STEP      6, STRESS PERIOD      7
 UBDSV1 SAVING     FLOW-JA-FACE ON UNIT   1016 AT TIME STEP      6, STRESS PERIOD      7
 UBDSV06 SAVING              RCH IN MODEL TEST_TRANS       PACKAGE TEST_TRANS      CONNECTED TO MODEL TEST_TRANS       PACKAGE RCHA             ON UNIT   1016 AT TIME STEP      6, STRESS PERIOD      7
 UBDSV06 SAVING              CHD IN MODEL TEST_TRANS       PACKAGE TEST_TRANS      CONNECTED TO MODEL TEST_TRANS       PACKAGE CHD              ON UNIT   1016 AT TIME STEP      6, STRESS PERIOD      7

 HEAD WILL BE SAVED ON UNIT 1017 AT END OF TIME STEP    6, STRESS PERIOD    7
 UBDSV1 SAVING           STO-SS ON UNIT   1016 AT TIME STEP      7, STRESS PERIOD      7
 UBDSV1 SAVING           STO-SY ON UNIT   1016 AT TIME STEP      7, STRESS PERIOD      7
 UBDSV1 SAVING     FLOW-JA-FACE ON UNIT   1016 AT TIME STEP      7, STRESS PERIOD      7
 UBDSV06 SAVING              RCH IN MODEL TEST_TRANS       PACKAGE TEST_TRANS      CONNECTED TO MODEL TEST_TRANS       PACKAGE RCHA             ON UNIT   1016 AT TIME STEP      7, STRESS PERIOD      7
 UBDSV06 SAVING              CHD IN MODEL TEST_TRANS       PACKAGE TEST_TRANS      CONNECTED TO MODEL TEST_TRANS       PACKAGE CHD              ON UNIT   1016 AT TIME STEP      7, STRESS PERIOD      7

 HEAD WILL BE SAVED ON UNIT 1017 AT END OF TIME STEP    7, STRESS PERIOD    7
 UBDSV1 SAVING           STO-SS ON UNIT   1016 AT TIME STEP      8, STRESS PERIOD      7
 UBDSV1 SAVING           STO-SY ON UNIT   1016 AT TIME STEP      8, STRESS PERIOD      7
 UBDSV1 SAVING     FLOW-JA-FACE ON UNIT   1016 AT TIME STEP      8, STRESS PERIOD      7
 UBDSV06 SAVING              RCH IN MODEL TEST_TRANS       PACKAGE TEST_TRANS      CONNECTED TO MODEL TEST_TRANS       PACKAGE RCHA             ON UNIT   1016 AT TIME STEP      8, STRESS PERIOD      7
 UBDSV06 SAVING              CHD IN MODEL TEST_TRANS       PACKAGE TEST_TRANS      CONNECTED TO MODEL TEST_TRANS       PACKAGE CHD              ON UNIT   1016 AT TIME STEP      8, STRESS PERIOD      7

 HEAD WILL BE SAVED ON UNIT 1017 AT END OF TIME STEP    8, STRESS PERIOD    7
 UBDSV1 SAVING           STO-SS ON UNIT   1016 AT TIME STEP      9, STRESS PERIOD      7
 UBDSV1 SAVING           STO-SY ON UNIT   1016 AT TIME STEP      9, STRESS PERIOD      7
 UBDSV1 SAVING     FLOW-JA-FACE ON UNIT   1016 AT TIME STEP      9, STRESS PERIOD      7
 UBDSV06 SAVING              RCH IN MODEL TEST_TRANS       PACKAGE TEST_TRANS      CONNECTED TO MODEL TEST_TRANS       PACKAGE RCHA             ON UNIT   1016 AT TIME STEP      9, STRESS PERIOD      7
 UBDSV06 SAVING              CHD IN MODEL TEST_TRANS       PACKAGE TEST_TRANS      CONNECTED TO MODEL TEST_TRANS       PACKAGE CHD              ON UNIT   1016 AT TIME STEP      9, STRESS PERIOD      7

 HEAD WILL BE SAVED ON UNIT 1017 AT END OF TIME STEP    9, STRESS PERIOD    7
 UBDSV1 SAVING           STO-SS ON UNIT   1016 AT TIME STEP     10, STRESS PERIOD      7
 UBDSV1 SAVING           STO-SY ON UNIT   1016 AT TIME STEP     10, STRESS PERIOD      7
 UBDSV1 SAVING     FLOW-JA-FACE ON UNIT   1016 AT TIME STEP     10, STRESS PERIOD      7
 UBDSV06 SAVING              RCH IN MODEL TEST_TRANS       PACKAGE TEST_TRANS      CONNECTED TO MODEL TEST_TRANS       PACKAGE RCHA             ON UNIT   1016 AT TIME STEP     10, STRESS PERIOD      7
 UBDSV06 SAVING              CHD IN MODEL TEST_TRANS       PACKAGE TEST_TRANS      CONNECTED TO MODEL TEST_TRANS       PACKAGE CHD              ON UNIT   1016 AT TIME STEP     10, STRESS PERIOD      7
1
  HEAD IN LAYER   1 AT END OF TIME STEP  10 IN STRESS PERIOD    7
  ---------------------------------------------------------------------------

            1           2           3           4           5           6           7           8           9          10
           11          12          13          14          15          16          17          18          19          20
           21          22          23          24          25          26          27          28          29          30
 ........................................................................................................................
   1    27.79       27.79       27.78       27.77       27.75       27.74       27.71       27.69       27.66       27.62    
        27.58       27.54       27.49       27.44       27.38       27.32       27.25       27.17       27.09       27.00    
        26.90       26.79       26.68       26.55       26.41       26.26       26.09       25.91       25.71       25.49    
   2    27.79       27.79       27.78       27.77       27.75       27.74       27.71       27.69       27.66       27.62    
        27.58       27.54       27.49       27.44       27.38       27.32       27.25       27.17       27.09       27.00    
        26.90       26.79       26.68       26.55       26.41       26.26       26.09       25.91       25.71       25.49    
   3    27.79       27.79       27.78       27.77       27.75       27.74       27.71       27.69       27.66       27.62    
        27.58       27.54       27.49       27.44       27.38       27.32       27.25       27.17       27.09       27.00    
        26.90       26.79       26.68       26.55       26.41       26.26       26.09       25.91       25.71       25.49    
   4    27.79       27.79       27.78       27.77       27.75       27.74       27.71       27.69       27.66       27.62    
        27.58       27.54       27.49       27.44       27.38       27.32       27.25       27.17       27.09       27.00    
        26.90       26.79       26.68       26.55       26.41       26.26       26.09       25.91       25.71       25.49    
   5    27.79       27.79       27.78       27.77       27.75       27.74       27.71       27.69       27.66       27.62    
        27.58       27.54       27.49       27.44       27.38       27.32       27.25       27.17       27.09       27.00    
        26.90       26.79       26.68       26.55       26.41       26.26       26.09       25.91       25.71       25.49    
   6    27.79       27.79       27.78       27.77       27.75       27.74       27.71       27.69       27.66       27.62    
        27.58       27.54       27.49       27.44       27.38       27.32       27.25       27.17       27.09       27.00    
        26.90       26.79       26.68       26.55       26.41       26.26       26.09       25.91       25.71       25.49    
   7    27.79       27.79       27.78       27.77       27.75       27.74       27.71       27.69       27.66       27.62    
        27.58       27.54       27.49       27.44       27.38       27.32       27.25       27.17       27.09       27.00    
        26.90       26.79       26.68       26.55       26.41       26.26       26.09       25.91       25.71       25.49    
   8    27.79       27.79       27.78       27.77       27.75       27.74       27.71       27.69       27.66       27.62    
        27.58       27.54       27.49       27.44       27.38       27.32       27.25       27.17       27.09       27.00    
        26.90       26.79       26.68       26.55       26.41       26.26       26.09       25.91       25.71       25.49    
   9    27.79       27.79       27.78       27.77       27.75       27.74       27.71       27.69       27.66       27.62    
        27.58       27.54       27.49       27.44       27.38       27.32       27.25       27.17       27.09       27.00    
        26.90       26.79       26.68       26.55       26.41       26.26       26.09       25.91       25.71       25.49    
  10    27.79       27.79       27.78       27.77       27.75       27.74       27.71       27.69       27.66       27.62    
        27.58       27.54       27.49       27.44       27.38       27.32       27.25       27.17       27.09       27.00    
        26.90       26.79       26.68       26.55       26.41       26.26       26.09       25.91       25.71       25.49    
  11    27.79       27.79       27.78       27.77       27.75       27.74       27.71       27.69       27.66       27.62    
        27.58       27.54       27.49       27.44       27.38       27.32       27.25       27.17       27.09       27.00    
        26.90       26.79       26.68       26.55       26.41       26.26       26.09       25.91       25.71       25.49    
  12    27.79       27.79       27.78       27.77       27.75       27.74       27.71       27.69       27.66       27.62    
        27.58       27.54       27.49       27.44       27.38       27.32       27.25       27.17       27.09       27.00    
        26.90       26.79       26.68       26.55       26.41       26.26       26.09       25.91       25.71       25.49    
  13    27.79       27.79       27.78       27.77       27.75       27.74       27.71       27.69       27.66       27.62    
        27.58       27.54       27.49       27.44       27.38       27.32       27.25       27.17       27.09       27.00    
        26.90       26.79       26.68       26.55       26.41       26.26       26.09       25.91       25.71       25.49    
  14    27.79       27.79       27.78       27.77       27.75       27.74       27.71       27.69       27.66       27.62    
        27.58       27.54       27.49       27.44       27.38       27.32       27.25       27.17       27.09       27.00    
        26.90       26.79       26.68       26.55       26.41       26.26       26.09       25.91       25.71       25.49    
  15    27.79       27.79       27.78       27.77       27.75       27.74       27.71       27.69       27.66       27.62    
        27.58       27.54       27.49       27.44       27.38       27.32       27.25       27.17       27.09       27.00    
        26.90       26.79       26.68       26.55       26.41       26.26       26.09       25.91       25.71       25.49    
  16    27.79       27.79       27.78       27.77       27.75       27.74       27.71       27.69       27.66       27.62    
        27.58       27.54       27.49       27.44       27.38       27.32       27.25       27.17       27.09       27.00    
        26.90       26.79       26.68       26.55       26.41       26.26       26.09       25.91       25.71       25.49    
  17    27.79       27.79       27.78       27.77       27.75       27.74       27.71       27.69       27.66       27.62    
        27.58       27.54       27.49       27.44       27.38       27.32       27.25       27.17       27.09       27.00    
        26.90       26.79       26.68       26.55       26.41       26.26       26.09       25.91       25.71       25.49    
  18    27.79       27.79       27.78       27.77       27.75       27.74       27.71       27.69       27.66       27.62    
        27.58       27.54       27.49       27.44       27.38       27.32       27.25       27.17       27.09       27.00    
        26.90       26.79       26.68       26.55       26.41       26.26       26.09       25.91       25.71       25.49    
  19    27.79       27.79       27.78       27.77       27.75       27.74       27.71       27.69       27.66       27.62    
        27.58       27.54       27.49       27.44       27.38       27.32       27.25       27.17       27.09       27.00    
        26.90       26.79       26.68       26.55       26.41       26.26       26.09       25.91       25.71       25.49    
  20    27.79       27.79       27.78       27.77       27.75       27.74       27.71       27.69       27.66       27.62    
        27.58       27.54       27.49       27.44       27.38       27.32       27.25       27.17       27.09       27.00    
        26.90       26.79       26.68       26.55       26.41       26.26       26.09       25.91       25.71       25.49    
  21    27.79       27.79       27.78       27.77       27.75       27.74       27.71       27.69       27.66       27.62    
        27.58       27.54       27.49       27.44       27.38       27.32       27.25       27.17       27.09       27.00    
        26.90       26.79       26.68       26.55       26.41       26.26       26.09       25.91       25.71       25.49    
  22    27.79       27.79       27.78       27.77       27.75       27.74       27.71       27.69       27.66       27.62    
        27.58       27.54       27.49       27.44       27.38       27.32       27.25       27.17       27.09       27.00    
        26.90       26.79       26.68       26.55       26.41       26.26       26.09       25.91       25.71       25.49    
  23    27.79       27.79       27.78       27.77       27.75       27.74       27.71       27.69       27.66       27.62    
        27.58       27.54       27.49       27.44       27.38       27.32       27.25       27.17       27.09       27.00    
        26.90       26.79       26.68       26.55       26.41       26.26       26.09       25.91       25.71       25.49    
  24    27.79       27.79       27.78       27.77       27.75       27.74       27.71       27.69       27.66       27.62    
        27.58       27.54       27.49       27.44       27.38       27.32       27.25       27.17       27.09       27.00    
        26.90       26.79       26.68       26.55       26.41       26.26       26.09       25.91       25.71       25.49    
  25    27.79       27.79       27.78       27.77       27.75       27.74       27.71       27.69       27.66       27.62    
        27.58       27.54       27.49       27.44       27.38       27.32       27.25       27.17       27.09       27.00    
        26.90       26.79       26.68       26.55       26.41       26.26       26.09       25.91       25.71       25.49    
  26    27.79       27.79       27.78       27.77       27.75       27.74       27.71       27.69       27.66       27.62    
        27.58       27.54       27.49       27.44       27.38       27.32       27.25       27.17       27.09       27.00    
        26.90       26.79       26.68       26.55       26.41       26.26       26.09       25.91       25.71       25.49    
  27    27.79       27.79       27.78       27.77       27.75       27.74       27.71       27.69       27.66       27.62    
        27.58       27.54       27.49       27.44       27.38       27.32       27.25       27.17       27.09       27.00    
        26.90       26.79       26.68       26.55       26.41       26.26       26.09       25.91       25.71       25.49    
  28    27.79       27.79       27.78       27.77       27.75       27.74       27.71       27.69       27.66       27.62    
        27.58       27.54       27.49       27.44       27.38       27.32       27.25       27.17       27.09       27.00    
        26.90       26.79       26.68       26.55       26.41       26.26       26.09       25.91       25.71       25.49    
  29    27.79       27.79       27.78       27.77       27.75       27.74       27.71       27.69       27.66       27.62    
        27.58       27.54       27.49       27.44       27.38       27.32       27.25       27.17       27.09       27.00    
        26.90       26.79       26.68       26.55       26.41       26.26       26.09       25.91       25.71       25.49    
  30    27.79       27.79       27.78       27.77       27.75       27.74       27.71       27.69       27.66       27.62    
        27.58       27.54       27.49       27.44       27.38       27.32       27.25       27.17       27.09       27.00    
        26.90       26.79       26.68       26.55       26.41       26.26       26.09       25.91       25.71       25.49    

 HEAD WILL BE SAVED ON UNIT 1017 AT END OF TIME STEP   10, STRESS PERIOD    7


  VOLUME BUDGET FOR ENTIRE MODEL AT END OF TIME STEP   10, STRESS PERIOD   7
  ---------------------------------------------------------------------------------------------------

     CUMULATIVE VOLUME      L**3       RATES FOR THIS TIME STEP      L**3/T          PACKAGE NAME    
     ------------------                 ------------------------                     ----------------

           IN:                                      IN:
           ---                                      ---
              STO-SS =          16.4957                STO-SS =           0.1560     STORAGE         
              STO-SY =       10355.0964                STO-SY =          99.4835     STORAGE         
                 RCH =       26338.3644                   RCH =          47.6712     RCHA            
                 CHD =        1052.4133                   CHD =           0.0000     CHD             

            TOTAL IN =       37762.3697              TOTAL IN =         147.3107

          OUT:                                     OUT:
          ----                                     ----
              STO-SS =           8.9557                STO-SS =           0.0000     STORAGE         
              STO-SY =        5927.8700                STO-SY =           0.0000     STORAGE         
                 RCH =           0.0000                   RCH =           0.0000     RCHA            
                 CHD =       31825.3024                   CHD =         147.3006     CHD             

           TOTAL OUT =       37762.1281             TOTAL OUT =         147.3006

            IN - OUT =           0.2417              IN - OUT =       1.0058E-02

 PERCENT DISCREPANCY =           0.00     PERCENT DISCREPANCY =           0.01




         TIME SUMMARY AT END OF TIME STEP   10 IN STRESS PERIOD    7
                    SECONDS     MINUTES      HOURS       DAYS        YEARS
                    -----------------------------------------------------------
   TIME STEP LENGTH 2.59200E+05  4320.0      72.000      3.0000     8.21355E-03
 STRESS PERIOD TIME 2.59200E+06  43200.      720.00      30.000     8.21355E-02
         TOTAL TIME 1.56384E+07 2.60640E+05  4344.0      181.00     0.49555    

 OUTPUT CONTROL FOR STRESS PERIOD 8 IS REPEATED USING SETTINGS FROM A PREVIOUS STRESS PERIOD.


 STRESS PERIOD 8 IS TRANSIENT


                 RECHARGE =  0.1095890E-02
 UBDSV1 SAVING           STO-SS ON UNIT   1016 AT TIME STEP      1, STRESS PERIOD      8
 UBDSV1 SAVING           STO-SY ON UNIT   1016 AT TIME STEP      1, STRESS PERIOD      8
 UBDSV1 SAVING     FLOW-JA-FACE ON UNIT   1016 AT TIME STEP      1, STRESS PERIOD      8
 UBDSV06 SAVING              RCH IN MODEL TEST_TRANS       PACKAGE TEST_TRANS      CONNECTED TO MODEL TEST_TRANS       PACKAGE RCHA             ON UNIT   1016 AT TIME STEP      1, STRESS PERIOD      8
 UBDSV06 SAVING              CHD IN MODEL TEST_TRANS       PACKAGE TEST_TRANS      CONNECTED TO MODEL TEST_TRANS       PACKAGE CHD              ON UNIT   1016 AT TIME STEP      1, STRESS PERIOD      8
1
  HEAD IN LAYER   1 AT END OF TIME STEP   1 IN STRESS PERIOD    8
  ---------------------------------------------------------------------------

            1           2           3           4           5           6           7           8           9          10
           11          12          13          14          15          16          17          18          19          20
           21          22          23          24          25          26          27          28          29          30
 ........................................................................................................................
   1    27.78       27.78       27.77       27.76       27.75       27.73       27.71       27.68       27.65       27.61    
        27.57       27.53       27.48       27.43       27.37       27.31       27.24       27.16       27.08       26.98    
        26.88       26.78       26.66       26.53       26.38       26.22       26.04       25.82       25.56       25.20    
   2    27.78       27.78       27.77       27.76       27.75       27.73       27.71       27.68       27.65       27.61    
        27.57       27.53       27.48       27.43       27.37       27.31       27.24       27.16       27.08       26.98    
        26.88       26.78       26.66       26.53       26.38       26.22       26.04       25.82       25.56       25.20    
   3    27.78       27.78       27.77       27.76       27.75       27.73       27.71       27.68       27.65       27.61    
        27.57       27.53       27.48       27.43       27.37       27.31       27.24       27.16       27.08       26.98    
        26.88       26.78       26.66       26.53       26.38       26.22       26.04       25.82       25.56       25.20    
   4    27.78       27.78       27.77       27.76       27.75       27.73       27.71       27.68       27.65       27.61    
        27.57       27.53       27.48       27.43       27.37       27.31       27.24       27.16       27.08       26.98    
        26.88       26.78       26.66       26.53       26.38       26.22       26.04       25.82       25.56       25.20    
   5    27.78       27.78       27.77       27.76       27.75       27.73       27.71       27.68       27.65       27.61    
        27.57       27.53       27.48       27.43       27.37       27.31       27.24       27.16       27.08       26.98    
        26.88       26.78       26.66       26.53       26.38       26.22       26.04       25.82       25.56       25.20    
   6    27.78       27.78       27.77       27.76       27.75       27.73       27.71       27.68       27.65       27.61    
        27.57       27.53       27.48       27.43       27.37       27.31       27.24       27.16       27.08       26.98    
        26.88       26.78       26.66       26.53       26.38       26.22       26.04       25.82       25.56       25.20    
   7    27.78       27.78       27.77       27.76       27.75       27.73       27.71       27.68       27.65       27.61    
        27.57       27.53       27.48       27.43       27.37       27.31       27.24       27.16       27.08       26.98    
        26.88       26.78       26.66       26.53       26.38       26.22       26.04       25.82       25.56       25.20    
   8    27.78       27.78       27.77       27.76       27.75       27.73       27.71       27.68       27.65       27.61    
        27.57       27.53       27.48       27.43       27.37       27.31       27.24       27.16       27.08       26.98    
        26.88       26.78       26.66       26.53       26.38       26.22       26.04       25.82       25.56       25.20    
   9    27.78       27.78       27.77       27.76       27.75       27.73       27.71       27.68       27.65       27.61    
        27.57       27.53       27.48       27.43       27.37       27.31       27.24       27.16       27.08       26.98    
        26.88       26.78       26.66       26.53       26.38       26.22       26.04       25.82       25.56       25.20    
  10    27.78       27.78       27.77       27.76       27.75       27.73       27.71       27.68       27.65       27.61    
        27.57       27.53       27.48       27.43       27.37       27.31       27.24       27.16       27.08       26.98    
        26.88       26.78       26.66       26.53       26.38       26.22       26.04       25.82       25.56       25.20    
  11    27.78       27.78       27.77       27.76       27.75       27.73       27.71       27.68       27.65       27.61    
        27.57       27.53       27.48       27.43       27.37       27.31       27.24       27.16       27.08       26.98    
        26.88       26.78       26.66       26.53       26.38       26.22       26.04       25.82       25.56       25.20    
  12    27.78       27.78       27.77       27.76       27.75       27.73       27.71       27.68       27.65       27.61    
        27.57       27.53       27.48       27.43       27.37       27.31       27.24       27.16       27.08       26.98    
        26.88       26.78       26.66       26.53       26.38       26.22       26.04       25.82       25.56       25.20    
  13    27.78       27.78       27.77       27.76       27.75       27.73       27.71       27.68       27.65       27.61    
        27.57       27.53       27.48       27.43       27.37       27.31       27.24       27.16       27.08       26.98    
        26.88       26.78       26.66       26.53       26.38       26.22       26.04       25.82       25.56       25.20    
  14    27.78       27.78       27.77       27.76       27.75       27.73       27.71       27.68       27.65       27.61    
        27.57       27.53       27.48       27.43       27.37       27.31       27.24       27.16       27.08       26.98    
        26.88       26.78       26.66       26.53       26.38       26.22       26.04       25.82       25.56       25.20    
  15    27.78       27.78       27.77       27.76       27.75       27.73       27.71       27.68       27.65       27.61    
        27.57       27.53       27.48       27.43       27.37       27.31       27.24       27.16       27.08       26.98    
        26.88       26.78       26.66       26.53       26.38       26.22       26.04       25.82       25.56       25.20    
  16    27.78       27.78       27.77       27.76       27.75       27.73       27.71       27.68       27.65       27.61    
        27.57       27.53       27.48       27.43       27.37       27.31       27.24       27.16       27.08       26.98    
        26.88       26.78       26.66       26.53       26.38       26.22       26.04       25.82       25.56       25.20    
  17    27.78       27.78       27.77       27.76       27.75       27.73       27.71       27.68       27.65       27.61    
        27.57       27.53       27.48       27.43       27.37       27.31       27.24       27.16       27.08       26.98    
        26.88       26.78       26.66       26.53       26.38       26.22       26.04       25.82       25.56       25.20    
  18    27.78       27.78       27.77       27.76       27.75       27.73       27.71       27.68       27.65       27.61    
        27.57       27.53       27.48       27.43       27.37       27.31       27.24       27.16       27.08       26.98    
        26.88       26.78       26.66       26.53       26.38       26.22       26.04       25.82       25.56       25.20    
  19    27.78       27.78       27.77       27.76       27.75       27.73       27.71       27.68       27.65       27.61    
        27.57       27.53       27.48       27.43       27.37       27.31       27.24       27.16       27.08       26.98    
        26.88       26.78       26.66       26.53       26.38       26.22       26.04       25.82       25.56       25.20    
  20    27.78       27.78       27.77       27.76       27.75       27.73       27.71       27.68       27.65       27.61    
        27.57       27.53       27.48       27.43       27.37       27.31       27.24       27.16       27.08       26.98    
        26.88       26.78       26.66       26.53       26.38       26.22       26.04       25.82       25.56       25.20    
  21    27.78       27.78       27.77       27.76       27.75       27.73       27.71       27.68       27.65       27.61    
        27.57       27.53       27.48       27.43       27.37       27.31       27.24       27.16       27.08       26.98    
        26.88       26.78       26.66       26.53       26.38       26.22       26.04       25.82       25.56       25.20    
  22    27.78       27.78       27.77       27.76       27.75       27.73       27.71       27.68       27.65       27.61    
        27.57       27.53       27.48       27.43       27.37       27.31       27.24       27.16       27.08       26.98    
        26.88       26.78       26.66       26.53       26.38       26.22       26.04       25.82       25.56       25.20    
  23    27.78       27.78       27.77       27.76       27.75       27.73       27.71       27.68       27.65       27.61    
        27.57       27.53       27.48       27.43       27.37       27.31       27.24       27.16       27.08       26.98    
        26.88       26.78       26.66       26.53       26.38       26.22       26.04       25.82       25.56       25.20    
  24    27.78       27.78       27.77       27.76       27.75       27.73       27.71       27.68       27.65       27.61    
        27.57       27.53       27.48       27.43       27.37       27.31       27.24       27.16       27.08       26.98    
        26.88       26.78       26.66       26.53       26.38       26.22       26.04       25.82       25.56       25.20    
  25    27.78       27.78       27.77       27.76       27.75       27.73       27.71       27.68       27.65       27.61    
        27.57       27.53       27.48       27.43       27.37       27.31       27.24       27.16       27.08       26.98    
        26.88       26.78       26.66       26.53       26.38       26.22       26.04       25.82       25.56       25.20    
  26    27.78       27.78       27.77       27.76       27.75       27.73       27.71       27.68       27.65       27.61    
        27.57       27.53       27.48       27.43       27.37       27.31       27.24       27.16       27.08       26.98    
        26.88       26.78       26.66       26.53       26.38       26.22       26.04       25.82       25.56       25.20    
  27    27.78       27.78       27.77       27.76       27.75       27.73       27.71       27.68       27.65       27.61    
        27.57       27.53       27.48       27.43       27.37       27.31       27.24       27.16       27.08       26.98    
        26.88       26.78       26.66       26.53       26.38       26.22       26.04       25.82       25.56       25.20    
  28    27.78       27.78       27.77       27.76       27.75       27.73       27.71       27.68       27.65       27.61    
        27.57       27.53       27.48       27.43       27.37       27.31       27.24       27.16       27.08       26.98    
        26.88       26.78       26.66       26.53       26.38       26.22       26.04       25.82       25.56       25.20    
  29    27.78       27.78       27.77       27.76       27.75       27.73       27.71       27.68       27.65       27.61    
        27.57       27.53       27.48       27.43       27.37       27.31       27.24       27.16       27.08       26.98    
        26.88       26.78       26.66       26.53       26.38       26.22       26.04       25.82       25.56       25.20    
  30    27.78       27.78       27.77       27.76       27.75       27.73       27.71       27.68       27.65       27.61    
        27.57       27.53       27.48       27.43       27.37       27.31       27.24       27.16       27.08       26.98    
        26.88       26.78       26.66       26.53       26.38       26.22       26.04       25.82       25.56       25.20    

 HEAD WILL BE SAVED ON UNIT 1017 AT END OF TIME STEP    1, STRESS PERIOD    8



         TIME SUMMARY AT END OF TIME STEP    1 IN STRESS PERIOD    8
                    SECONDS     MINUTES      HOURS       DAYS        YEARS
                    -----------------------------------------------------------
   TIME STEP LENGTH 2.59200E+05  4320.0      72.000      3.0000     8.21355E-03
 STRESS PERIOD TIME 2.59200E+05  4320.0      72.000      3.0000     8.21355E-03
         TOTAL TIME 1.58976E+07 2.64960E+05  4416.0      184.00     0.50376    
 UBDSV1 SAVING           STO-SS ON UNIT   1016 AT TIME STEP      2, STRESS PERIOD      8
 UBDSV1 SAVING           STO-SY ON UNIT   1016 AT TIME STEP      2, STRESS PERIOD      8
 UBDSV1 SAVING     FLOW-JA-FACE ON UNIT   1016 AT TIME STEP      2, STRESS PERIOD      8
 UBDSV06 SAVING              RCH IN MODEL TEST_TRANS       PACKAGE TEST_TRANS      CONNECTED TO MODEL TEST_TRANS       PACKAGE RCHA             ON UNIT   1016 AT TIME STEP      2, STRESS PERIOD      8
 UBDSV06 SAVING              CHD IN MODEL TEST_TRANS       PACKAGE TEST_TRANS      CONNECTED TO MODEL TEST_TRANS       PACKAGE CHD              ON UNIT   1016 AT TIME STEP      2, STRESS PERIOD      8

 HEAD WILL BE SAVED ON UNIT 1017 AT END OF TIME STEP    2, STRESS PERIOD    8
 UBDSV1 SAVING           STO-SS ON UNIT   1016 AT TIME STEP      3, STRESS PERIOD      8
 UBDSV1 SAVING           STO-SY ON UNIT   1016 AT TIME STEP      3, STRESS PERIOD      8
 UBDSV1 SAVING     FLOW-JA-FACE ON UNIT   1016 AT TIME STEP      3, STRESS PERIOD      8
 UBDSV06 SAVING              RCH IN MODEL TEST_TRANS       PACKAGE TEST_TRANS      CONNECTED TO MODEL TEST_TRANS       PACKAGE RCHA             ON UNIT   1016 AT TIME STEP      3, STRESS PERIOD      8
 UBDSV06 SAVING              CHD IN MODEL TEST_TRANS       PACKAGE TEST_TRANS      CONNECTED TO MODEL TEST_TRANS       PACKAGE CHD              ON UNIT   1016 AT TIME STEP      3, STRESS PERIOD      8

 HEAD WILL BE SAVED ON UNIT 1017 AT END OF TIME STEP    3, STRESS PERIOD    8
 UBDSV1 SAVING           STO-SS ON UNIT   1016 AT TIME STEP      4, STRESS PERIOD      8
 UBDSV1 SAVING           STO-SY ON UNIT   1016 AT TIME STEP      4, STRESS PERIOD      8
 UBDSV1 SAVING     FLOW-JA-FACE ON UNIT   1016 AT TIME STEP      4, STRESS PERIOD      8
 UBDSV06 SAVING              RCH IN MODEL TEST_TRANS       PACKAGE TEST_TRANS      CONNECTED TO MODEL TEST_TRANS       PACKAGE RCHA             ON UNIT   1016 AT TIME STEP      4, STRESS PERIOD      8
 UBDSV06 SAVING              CHD IN MODEL TEST_TRANS       PACKAGE TEST_TRANS      CONNECTED TO MODEL TEST_TRANS       PACKAGE CHD              ON UNIT   1016 AT TIME STEP      4, STRESS PERIOD      8

 HEAD WILL BE SAVED ON UNIT 1017 AT END OF TIME STEP    4, STRESS PERIOD    8
 UBDSV1 SAVING           STO-SS ON UNIT   1016 AT TIME STEP      5, STRESS PERIOD      8
 UBDSV1 SAVING           STO-SY ON UNIT   1016 AT TIME STEP      5, STRESS PERIOD      8
 UBDSV1 SAVING     FLOW-JA-FACE ON UNIT   1016 AT TIME STEP      5, STRESS PERIOD      8
 UBDSV06 SAVING              RCH IN MODEL TEST_TRANS       PACKAGE TEST_TRANS      CONNECTED TO MODEL TEST_TRANS       PACKAGE RCHA             ON UNIT   1016 AT TIME STEP      5, STRESS PERIOD      8
 UBDSV06 SAVING              CHD IN MODEL TEST_TRANS       PACKAGE TEST_TRANS      CONNECTED TO MODEL TEST_TRANS       PACKAGE CHD              ON UNIT   1016 AT TIME STEP      5, STRESS PERIOD      8

 HEAD WILL BE SAVED ON UNIT 1017 AT END OF TIME STEP    5, STRESS PERIOD    8
 UBDSV1 SAVING           STO-SS ON UNIT   1016 AT TIME STEP      6, STRESS PERIOD      8
 UBDSV1 SAVING           STO-SY ON UNIT   1016 AT TIME STEP      6, STRESS PERIOD      8
 UBDSV1 SAVING     FLOW-JA-FACE ON UNIT   1016 AT TIME STEP      6, STRESS PERIOD      8
 UBDSV06 SAVING              RCH IN MODEL TEST_TRANS       PACKAGE TEST_TRANS      CONNECTED TO MODEL TEST_TRANS       PACKAGE RCHA             ON UNIT   1016 AT TIME STEP      6, STRESS PERIOD      8
 UBDSV06 SAVING              CHD IN MODEL TEST_TRANS       PACKAGE TEST_TRANS      CONNECTED TO MODEL TEST_TRANS       PACKAGE CHD              ON UNIT   1016 AT TIME STEP      6, STRESS PERIOD      8

 HEAD WILL BE SAVED ON UNIT 1017 AT END OF TIME STEP    6, STRESS PERIOD    8
 UBDSV1 SAVING           STO-SS ON UNIT   1016 AT TIME STEP      7, STRESS PERIOD      8
 UBDSV1 SAVING           STO-SY ON UNIT   1016 AT TIME STEP      7, STRESS PERIOD      8
 UBDSV1 SAVING     FLOW-JA-FACE ON UNIT   1016 AT TIME STEP      7, STRESS PERIOD      8
 UBDSV06 SAVING              RCH IN MODEL TEST_TRANS       PACKAGE TEST_TRANS      CONNECTED TO MODEL TEST_TRANS       PACKAGE RCHA             ON UNIT   1016 AT TIME STEP      7, STRESS PERIOD      8
 UBDSV06 SAVING              CHD IN MODEL TEST_TRANS       PACKAGE TEST_TRANS      CONNECTED TO MODEL TEST_TRANS       PACKAGE CHD              ON UNIT   1016 AT TIME STEP      7, STRESS PERIOD      8

 HEAD WILL BE SAVED ON UNIT 1017 AT END OF TIME STEP    7, STRESS PERIOD    8
 UBDSV1 SAVING           STO-SS ON UNIT   1016 AT TIME STEP      8, STRESS PERIOD      8
 UBDSV1 SAVING           STO-SY ON UNIT   1016 AT TIME STEP      8, STRESS PERIOD      8
 UBDSV1 SAVING     FLOW-JA-FACE ON UNIT   1016 AT TIME STEP      8, STRESS PERIOD      8
 UBDSV06 SAVING              RCH IN MODEL TEST_TRANS       PACKAGE TEST_TRANS      CONNECTED TO MODEL TEST_TRANS       PACKAGE RCHA             ON UNIT   1016 AT TIME STEP      8, STRESS PERIOD      8
 UBDSV06 SAVING              CHD IN MODEL TEST_TRANS       PACKAGE TEST_TRANS      CONNECTED TO MODEL TEST_TRANS       PACKAGE CHD              ON UNIT   1016 AT TIME STEP      8, STRESS PERIOD      8

 HEAD WILL BE SAVED ON UNIT 1017 AT END OF TIME STEP    8, STRESS PERIOD    8
 UBDSV1 SAVING           STO-SS ON UNIT   1016 AT TIME STEP      9, STRESS PERIOD      8
 UBDSV1 SAVING           STO-SY ON UNIT   1016 AT TIME STEP      9, STRESS PERIOD      8
 UBDSV1 SAVING     FLOW-JA-FACE ON UNIT   1016 AT TIME STEP      9, STRESS PERIOD      8
 UBDSV06 SAVING              RCH IN MODEL TEST_TRANS       PACKAGE TEST_TRANS      CONNECTED TO MODEL TEST_TRANS       PACKAGE RCHA             ON UNIT   1016 AT TIME STEP      9, STRESS PERIOD      8
 UBDSV06 SAVING              CHD IN MODEL TEST_TRANS       PACKAGE TEST_TRANS      CONNECTED TO MODEL TEST_TRANS       PACKAGE CHD              ON UNIT   1016 AT TIME STEP      9, STRESS PERIOD      8

 HEAD WILL BE SAVED ON UNIT 1017 AT END OF TIME STEP    9, STRESS PERIOD    8
 UBDSV1 SAVING           STO-SS ON UNIT   1016 AT TIME STEP     10, STRESS PERIOD      8
 UBDSV1 SAVING           STO-SY ON UNIT   1016 AT TIME STEP     10, STRESS PERIOD      8
 UBDSV1 SAVING     FLOW-JA-FACE ON UNIT   1016 AT TIME STEP     10, STRESS PERIOD      8
 UBDSV06 SAVING              RCH IN MODEL TEST_TRANS       PACKAGE TEST_TRANS      CONNECTED TO MODEL TEST_TRANS       PACKAGE RCHA             ON UNIT   1016 AT TIME STEP     10, STRESS PERIOD      8
 UBDSV06 SAVING              CHD IN MODEL TEST_TRANS       PACKAGE TEST_TRANS      CONNECTED TO MODEL TEST_TRANS       PACKAGE CHD              ON UNIT   1016 AT TIME STEP     10, STRESS PERIOD      8
1
  HEAD IN LAYER   1 AT END OF TIME STEP  10 IN STRESS PERIOD    8
  ---------------------------------------------------------------------------

            1           2           3           4           5           6           7           8           9          10
           11          12          13          14          15          16          17          18          19          20
           21          22          23          24          25          26          27          28          29          30
 ........................................................................................................................
   1    27.72       27.72       27.71       27.70       27.68       27.66       27.63       27.61       27.57       27.53    
        27.49       27.44       27.39       27.33       27.27       27.20       27.12       27.04       26.95       26.85    
        26.74       26.63       26.50       26.37       26.22       26.05       25.87       25.67       25.45       25.20    
   2    27.72       27.72       27.71       27.70       27.68       27.66       27.63       27.61       27.57       27.53    
        27.49       27.44       27.39       27.33       27.27       27.20       27.12       27.04       26.95       26.85    
        26.74       26.63       26.50       26.37       26.22       26.05       25.87       25.67       25.45       25.20    
   3    27.72       27.72       27.71       27.70       27.68       27.66       27.63       27.61       27.57       27.53    
        27.49       27.44       27.39       27.33       27.27       27.20       27.12       27.04       26.95       26.85    
        26.74       26.63       26.50       26.37       26.22       26.05       25.87       25.67       25.45       25.20    
   4    27.72       27.72       27.71       27.70       27.68       27.66       27.63       27.61       27.57       27.53    
        27.49       27.44       27.39       27.33       27.27       27.20       27.12       27.04       26.95       26.85    
        26.74       26.63       26.50       26.37       26.22       26.05       25.87       25.67       25.45       25.20    
   5    27.72       27.72       27.71       27.70       27.68       27.66       27.63       27.61       27.57       27.53    
        27.49       27.44       27.39       27.33       27.27       27.20       27.12       27.04       26.95       26.85    
        26.74       26.63       26.50       26.37       26.22       26.05       25.87       25.67       25.45       25.20    
   6    27.72       27.72       27.71       27.70       27.68       27.66       27.63       27.61       27.57       27.53    
        27.49       27.44       27.39       27.33       27.27       27.20       27.12       27.04       26.95       26.85    
        26.74       26.63       26.50       26.37       26.22       26.05       25.87       25.67       25.45       25.20    
   7    27.72       27.72       27.71       27.70       27.68       27.66       27.63       27.61       27.57       27.53    
        27.49       27.44       27.39       27.33       27.27       27.20       27.12       27.04       26.95       26.85    
        26.74       26.63       26.50       26.37       26.22       26.05       25.87       25.67       25.45       25.20    
   8    27.72       27.72       27.71       27.70       27.68       27.66       27.63       27.61       27.57       27.53    
        27.49       27.44       27.39       27.33       27.27       27.20       27.12       27.04       26.95       26.85    
        26.74       26.63       26.50       26.37       26.22       26.05       25.87       25.67       25.45       25.20    
   9    27.72       27.72       27.71       27.70       27.68       27.66       27.63       27.61       27.57       27.53    
        27.49       27.44       27.39       27.33       27.27       27.20       27.12       27.04       26.95       26.85    
        26.74       26.63       26.50       26.37       26.22       26.05       25.87       25.67       25.45       25.20    
  10    27.72       27.72       27.71       27.70       27.68       27.66       27.63       27.61       27.57       27.53    
        27.49       27.44       27.39       27.33       27.27       27.20       27.12       27.04       26.95       26.85    
        26.74       26.63       26.50       26.37       26.22       26.05       25.87       25.67       25.45       25.20    
  11    27.72       27.72       27.71       27.70       27.68       27.66       27.63       27.61       27.57       27.53    
        27.49       27.44       27.39       27.33       27.27       27.20       27.12       27.04       26.95       26.85    
        26.74       26.63       26.50       26.37       26.22       26.05       25.87       25.67       25.45       25.20    
  12    27.72       27.72       27.71       27.70       27.68       27.66       27.63       27.61       27.57       27.53    
        27.49       27.44       27.39       27.33       27.27       27.20       27.12       27.04       26.95       26.85    
        26.74       26.63       26.50       26.37       26.22       26.05       25.87       25.67       25.45       25.20    
  13    27.72       27.72       27.71       27.70       27.68       27.66       27.63       27.61       27.57       27.53    
        27.49       27.44       27.39       27.33       27.27       27.20       27.12       27.04       26.95       26.85    
        26.74       26.63       26.50       26.37       26.22       26.05       25.87       25.67       25.45       25.20    
  14    27.72       27.72       27.71       27.70       27.68       27.66       27.63       27.61       27.57       27.53    
        27.49       27.44       27.39       27.33       27.27       27.20       27.12       27.04       26.95       26.85    
        26.74       26.63       26.50       26.37       26.22       26.05       25.87       25.67       25.45       25.20    
  15    27.72       27.72       27.71       27.70       27.68       27.66       27.63       27.61       27.57       27.53    
        27.49       27.44       27.39       27.33       27.27       27.20       27.12       27.04       26.95       26.85    
        26.74       26.63       26.50       26.37       26.22       26.05       25.87       25.67       25.45       25.20    
  16    27.72       27.72       27.71       27.70       27.68       27.66       27.63       27.61       27.57       27.53    
        27.49       27.44       27.39       27.33       27.27       27.20       27.12       27.04       26.95       26.85    
        26.74       26.63       26.50       26.37       26.22       26.05       25.87       25.67       25.45       25.20    
  17    27.72       27.72       27.71       27.70       27.68       27.66       27.63       27.61       27.57       27.53    
        27.49       27.44       27.39       27.33       27.27       27.20       27.12       27.04       26.95       26.85    
        26.74       26.63       26.50       26.37       26.22       26.05       25.87       25.67       25.45       25.20    
  18    27.72       27.72       27.71       27.70       27.68       27.66       27.63       27.61       27.57       27.53    
        27.49       27.44       27.39       27.33       27.27       27.20       27.12       27.04       26.95       26.85    
        26.74       26.63       26.50       26.37       26.22       26.05       25.87       25.67       25.45       25.20    
  19    27.72       27.72       27.71       27.70       27.68       27.66       27.63       27.61       27.57       27.53    
        27.49       27.44       27.39       27.33       27.27       27.20       27.12       27.04       26.95       26.85    
        26.74       26.63       26.50       26.37       26.22       26.05       25.87       25.67       25.45       25.20    
  20    27.72       27.72       27.71       27.70       27.68       27.66       27.63       27.61       27.57       27.53    
        27.49       27.44       27.39       27.33       27.27       27.20       27.12       27.04       26.95       26.85    
        26.74       26.63       26.50       26.37       26.22       26.05       25.87       25.67       25.45       25.20    
  21    27.72       27.72       27.71       27.70       27.68       27.66       27.63       27.61       27.57       27.53    
        27.49       27.44       27.39       27.33       27.27       27.20       27.12       27.04       26.95       26.85    
        26.74       26.63       26.50       26.37       26.22       26.05       25.87       25.67       25.45       25.20    
  22    27.72       27.72       27.71       27.70       27.68       27.66       27.63       27.61       27.57       27.53    
        27.49       27.44       27.39       27.33       27.27       27.20       27.12       27.04       26.95       26.85    
        26.74       26.63       26.50       26.37       26.22       26.05       25.87       25.67       25.45       25.20    
  23    27.72       27.72       27.71       27.70       27.68       27.66       27.63       27.61       27.57       27.53    
        27.49       27.44       27.39       27.33       27.27       27.20       27.12       27.04       26.95       26.85    
        26.74       26.63       26.50       26.37       26.22       26.05       25.87       25.67       25.45       25.20    
  24    27.72       27.72       27.71       27.70       27.68       27.66       27.63       27.61       27.57       27.53    
        27.49       27.44       27.39       27.33       27.27       27.20       27.12       27.04       26.95       26.85    
        26.74       26.63       26.50       26.37       26.22       26.05       25.87       25.67       25.45       25.20    
  25    27.72       27.72       27.71       27.70       27.68       27.66       27.63       27.61       27.57       27.53    
        27.49       27.44       27.39       27.33       27.27       27.20       27.12       27.04       26.95       26.85    
        26.74       26.63       26.50       26.37       26.22       26.05       25.87       25.67       25.45       25.20    
  26    27.72       27.72       27.71       27.70       27.68       27.66       27.63       27.61       27.57       27.53    
        27.49       27.44       27.39       27.33       27.27       27.20       27.12       27.04       26.95       26.85    
        26.74       26.63       26.50       26.37       26.22       26.05       25.87       25.67       25.45       25.20    
  27    27.72       27.72       27.71       27.70       27.68       27.66       27.63       27.61       27.57       27.53    
        27.49       27.44       27.39       27.33       27.27       27.20       27.12       27.04       26.95       26.85    
        26.74       26.63       26.50       26.37       26.22       26.05       25.87       25.67       25.45       25.20    
  28    27.72       27.72       27.71       27.70       27.68       27.66       27.63       27.61       27.57       27.53    
        27.49       27.44       27.39       27.33       27.27       27.20       27.12       27.04       26.95       26.85    
        26.74       26.63       26.50       26.37       26.22       26.05       25.87       25.67       25.45       25.20    
  29    27.72       27.72       27.71       27.70       27.68       27.66       27.63       27.61       27.57       27.53    
        27.49       27.44       27.39       27.33       27.27       27.20       27.12       27.04       26.95       26.85    
        26.74       26.63       26.50       26.37       26.22       26.05       25.87       25.67       25.45       25.20    
  30    27.72       27.72       27.71       27.70       27.68       27.66       27.63       27.61       27.57       27.53    
        27.49       27.44       27.39       27.33       27.27       27.20       27.12       27.04       26.95       26.85    
        26.74       26.63       26.50       26.37       26.22       26.05       25.87       25.67       25.45       25.20    

 HEAD WILL BE SAVED ON UNIT 1017 AT END OF TIME STEP   10, STRESS PERIOD    8


  VOLUME BUDGET FOR ENTIRE MODEL AT END OF TIME STEP   10, STRESS PERIOD   8
  ---------------------------------------------------------------------------------------------------

     CUMULATIVE VOLUME      L**3       RATES FOR THIS TIME STEP      L**3/T          PACKAGE NAME    
     ------------------                 ------------------------                     ----------------

           IN:                                      IN:
           ---                                      ---
              STO-SS =          19.9272                STO-SS =       8.6820E-02     STORAGE         
              STO-SY =       12593.2381                STO-SY =          55.7562     STORAGE         
                 RCH =       29198.6373                   RCH =          95.3424     RCHA            
                 CHD =        1052.4133                   CHD =           0.0000     CHD             

            TOTAL IN =       42864.2158              TOTAL IN =         151.1854

          OUT:                                     OUT:
          ----                                     ----
              STO-SS =           8.9557                STO-SS =           0.0000     STORAGE         
              STO-SY =        5927.8700                STO-SY =           0.0000     STORAGE         
                 RCH =           0.0000                   RCH =           0.0000     RCHA            
                 CHD =       36927.0246                   CHD =         151.1800     CHD             

           TOTAL OUT =       42863.8502             TOTAL OUT =         151.1800

            IN - OUT =           0.3656              IN - OUT =       5.4071E-03

 PERCENT DISCREPANCY =           0.00     PERCENT DISCREPANCY =           0.00




         TIME SUMMARY AT END OF TIME STEP   10 IN STRESS PERIOD    8
                    SECONDS     MINUTES      HOURS       DAYS        YEARS
                    -----------------------------------------------------------
   TIME STEP LENGTH 2.59200E+05  4320.0      72.000      3.0000     8.21355E-03
 STRESS PERIOD TIME 2.59200E+06  43200.      720.00      30.000     8.21355E-02
         TOTAL TIME 1.82304E+07 3.03840E+05  5064.0      211.00     0.57769    

 OUTPUT CONTROL FOR STRESS PERIOD 9 IS REPEATED USING SETTINGS FROM A PREVIOUS STRESS PERIOD.


 STRESS PERIOD 9 IS TRANSIENT


                 RECHARGE =  0.1643840E-02
 UBDSV1 SAVING           STO-SS ON UNIT   1016 AT TIME STEP      1, STRESS PERIOD      9
 UBDSV1 SAVING           STO-SY ON UNIT   1016 AT TIME STEP      1, STRESS PERIOD      9
 UBDSV1 SAVING     FLOW-JA-FACE ON UNIT   1016 AT TIME STEP      1, STRESS PERIOD      9
 UBDSV06 SAVING              RCH IN MODEL TEST_TRANS       PACKAGE TEST_TRANS      CONNECTED TO MODEL TEST_TRANS       PACKAGE RCHA             ON UNIT   1016 AT TIME STEP      1, STRESS PERIOD      9
 UBDSV06 SAVING              CHD IN MODEL TEST_TRANS       PACKAGE TEST_TRANS      CONNECTED TO MODEL TEST_TRANS       PACKAGE CHD              ON UNIT   1016 AT TIME STEP      1, STRESS PERIOD      9
1
  HEAD IN LAYER   1 AT END OF TIME STEP   1 IN STRESS PERIOD    9
  ---------------------------------------------------------------------------

            1           2           3           4           5           6           7           8           9          10
           11          12          13          14          15          16          17          18          19          20
           21          22          23          24          25          26          27          28          29          30
 ........................................................................................................................
   1    27.72       27.72       27.71       27.69       27.68       27.66       27.63       27.60       27.57       27.53    
        27.49       27.44       27.39       27.33       27.27       27.20       27.12       27.04       26.95       26.85    
        26.74       26.62       26.50       26.36       26.20       26.03       25.83       25.61       25.32       24.94    
   2    27.72       27.72       27.71       27.69       27.68       27.66       27.63       27.60       27.57       27.53    
        27.49       27.44       27.39       27.33       27.27       27.20       27.12       27.04       26.95       26.85    
        26.74       26.62       26.50       26.36       26.20       26.03       25.83       25.61       25.32       24.94    
   3    27.72       27.72       27.71       27.69       27.68       27.66       27.63       27.60       27.57       27.53    
        27.49       27.44       27.39       27.33       27.27       27.20       27.12       27.04       26.95       26.85    
        26.74       26.62       26.50       26.36       26.20       26.03       25.83       25.61       25.32       24.94    
   4    27.72       27.72       27.71       27.69       27.68       27.66       27.63       27.60       27.57       27.53    
        27.49       27.44       27.39       27.33       27.27       27.20       27.12       27.04       26.95       26.85    
        26.74       26.62       26.50       26.36       26.20       26.03       25.83       25.61       25.32       24.94    
   5    27.72       27.72       27.71       27.69       27.68       27.66       27.63       27.60       27.57       27.53    
        27.49       27.44       27.39       27.33       27.27       27.20       27.12       27.04       26.95       26.85    
        26.74       26.62       26.50       26.36       26.20       26.03       25.83       25.61       25.32       24.94    
   6    27.72       27.72       27.71       27.69       27.68       27.66       27.63       27.60       27.57       27.53    
        27.49       27.44       27.39       27.33       27.27       27.20       27.12       27.04       26.95       26.85    
        26.74       26.62       26.50       26.36       26.20       26.03       25.83       25.61       25.32       24.94    
   7    27.72       27.72       27.71       27.69       27.68       27.66       27.63       27.60       27.57       27.53    
        27.49       27.44       27.39       27.33       27.27       27.20       27.12       27.04       26.95       26.85    
        26.74       26.62       26.50       26.36       26.20       26.03       25.83       25.61       25.32       24.94    
   8    27.72       27.72       27.71       27.69       27.68       27.66       27.63       27.60       27.57       27.53    
        27.49       27.44       27.39       27.33       27.27       27.20       27.12       27.04       26.95       26.85    
        26.74       26.62       26.50       26.36       26.20       26.03       25.83       25.61       25.32       24.94    
   9    27.72       27.72       27.71       27.69       27.68       27.66       27.63       27.60       27.57       27.53    
        27.49       27.44       27.39       27.33       27.27       27.20       27.12       27.04       26.95       26.85    
        26.74       26.62       26.50       26.36       26.20       26.03       25.83       25.61       25.32       24.94    
  10    27.72       27.72       27.71       27.69       27.68       27.66       27.63       27.60       27.57       27.53    
        27.49       27.44       27.39       27.33       27.27       27.20       27.12       27.04       26.95       26.85    
        26.74       26.62       26.50       26.36       26.20       26.03       25.83       25.61       25.32       24.94    
  11    27.72       27.72       27.71       27.69       27.68       27.66       27.63       27.60       27.57       27.53    
        27.49       27.44       27.39       27.33       27.27       27.20       27.12       27.04       26.95       26.85    
        26.74       26.62       26.50       26.36       26.20       26.03       25.83       25.61       25.32       24.94    
  12    27.72       27.72       27.71       27.69       27.68       27.66       27.63       27.60       27.57       27.53    
        27.49       27.44       27.39       27.33       27.27       27.20       27.12       27.04       26.95       26.85    
        26.74       26.62       26.50       26.36       26.20       26.03       25.83       25.61       25.32       24.94    
  13    27.72       27.72       27.71       27.69       27.68       27.66       27.63       27.60       27.57       27.53    
        27.49       27.44       27.39       27.33       27.27       27.20       27.12       27.04       26.95       26.85    
        26.74       26.62       26.50       26.36       26.20       26.03       25.83       25.61       25.32       24.94    
  14    27.72       27.72       27.71       27.69       27.68       27.66       27.63       27.60       27.57       27.53    
        27.49       27.44       27.39       27.33       27.27       27.20       27.12       27.04       26.95       26.85    
        26.74       26.62       26.50       26.36       26.20       26.03       25.83       25.61       25.32       24.94    
  15    27.72       27.72       27.71       27.69       27.68       27.66       27.63       27.60       27.57       27.53    
        27.49       27.44       27.39       27.33       27.27       27.20       27.12       27.04       26.95       26.85    
        26.74       26.62       26.50       26.36       26.20       26.03       25.83       25.61       25.32       24.94    
  16    27.72       27.72       27.71       27.69       27.68       27.66       27.63       27.60       27.57       27.53    
        27.49       27.44       27.39       27.33       27.27       27.20       27.12       27.04       26.95       26.85    
        26.74       26.62       26.50       26.36       26.20       26.03       25.83       25.61       25.32       24.94    
  17    27.72       27.72       27.71       27.69       27.68       27.66       27.63       27.60       27.57       27.53    
        27.49       27.44       27.39       27.33       27.27       27.20       27.12       27.04       26.95       26.85    
        26.74       26.62       26.50       26.36       26.20       26.03       25.83       25.61       25.32       24.94    
  18    27.72       27.72       27.71       27.69       27.68       27.66       27.63       27.60       27.57       27.53    
        27.49       27.44       27.39       27.33       27.27       27.20       27.12       27.04       26.95       26.85    
        26.74       26.62       26.50       26.36       26.20       26.03       25.83       25.61       25.32       24.94    
  19    27.72       27.72       27.71       27.69       27.68       27.66       27.63       27.60       27.57       27.53    
        27.49       27.44       27.39       27.33       27.27       27.20       27.12       27.04       26.95       26.85    
        26.74       26.62       26.50       26.36       26.20       26.03       25.83       25.61       25.32       24.94    
  20    27.72       27.72       27.71       27.69       27.68       27.66       27.63       27.60       27.57       27.53    
        27.49       27.44       27.39       27.33       27.27       27.20       27.12       27.04       26.95       26.85    
        26.74       26.62       26.50       26.36       26.20       26.03       25.83       25.61       25.32       24.94    
  21    27.72       27.72       27.71       27.69       27.68       27.66       27.63       27.60       27.57       27.53    
        27.49       27.44       27.39       27.33       27.27       27.20       27.12       27.04       26.95       26.85    
        26.74       26.62       26.50       26.36       26.20       26.03       25.83       25.61       25.32       24.94    
  22    27.72       27.72       27.71       27.69       27.68       27.66       27.63       27.60       27.57       27.53    
        27.49       27.44       27.39       27.33       27.27       27.20       27.12       27.04       26.95       26.85    
        26.74       26.62       26.50       26.36       26.20       26.03       25.83       25.61       25.32       24.94    
  23    27.72       27.72       27.71       27.69       27.68       27.66       27.63       27.60       27.57       27.53    
        27.49       27.44       27.39       27.33       27.27       27.20       27.12       27.04       26.95       26.85    
        26.74       26.62       26.50       26.36       26.20       26.03       25.83       25.61       25.32       24.94    
  24    27.72       27.72       27.71       27.69       27.68       27.66       27.63       27.60       27.57       27.53    
        27.49       27.44       27.39       27.33       27.27       27.20       27.12       27.04       26.95       26.85    
        26.74       26.62       26.50       26.36       26.20       26.03       25.83       25.61       25.32       24.94    
  25    27.72       27.72       27.71       27.69       27.68       27.66       27.63       27.60       27.57       27.53    
        27.49       27.44       27.39       27.33       27.27       27.20       27.12       27.04       26.95       26.85    
        26.74       26.62       26.50       26.36       26.20       26.03       25.83       25.61       25.32       24.94    
  26    27.72       27.72       27.71       27.69       27.68       27.66       27.63       27.60       27.57       27.53    
        27.49       27.44       27.39       27.33       27.27       27.20       27.12       27.04       26.95       26.85    
        26.74       26.62       26.50       26.36       26.20       26.03       25.83       25.61       25.32       24.94    
  27    27.72       27.72       27.71       27.69       27.68       27.66       27.63       27.60       27.57       27.53    
        27.49       27.44       27.39       27.33       27.27       27.20       27.12       27.04       26.95       26.85    
        26.74       26.62       26.50       26.36       26.20       26.03       25.83       25.61       25.32       24.94    
  28    27.72       27.72       27.71       27.69       27.68       27.66       27.63       27.60       27.57       27.53    
        27.49       27.44       27.39       27.33       27.27       27.20       27.12       27.04       26.95       26.85    
        26.74       26.62       26.50       26.36       26.20       26.03       25.83       25.61       25.32       24.94    
  29    27.72       27.72       27.71       27.69       27.68       27.66       27.63       27.60       27.57       27.53    
        27.49       27.44       27.39       27.33       27.27       27.20       27.12       27.04       26.95       26.85    
        26.74       26.62       26.50       26.36       26.20       26.03       25.83       25.61       25.32       24.94    
  30    27.72       27.72       27.71       27.69       27.68       27.66       27.63       27.60       27.57       27.53    
        27.49       27.44       27.39       27.33       27.27       27.20       27.12       27.04       26.95       26.85    
        26.74       26.62       26.50       26.36       26.20       26.03       25.83       25.61       25.32       24.94    

 HEAD WILL BE SAVED ON UNIT 1017 AT END OF TIME STEP    1, STRESS PERIOD    9



         TIME SUMMARY AT END OF TIME STEP    1 IN STRESS PERIOD    9
                    SECONDS     MINUTES      HOURS       DAYS        YEARS
                    -----------------------------------------------------------
   TIME STEP LENGTH 2.59200E+05  4320.0      72.000      3.0000     8.21355E-03
 STRESS PERIOD TIME 2.59200E+05  4320.0      72.000      3.0000     8.21355E-03
         TOTAL TIME 1.84896E+07 3.08160E+05  5136.0      214.00     0.58590    
 UBDSV1 SAVING           STO-SS ON UNIT   1016 AT TIME STEP      2, STRESS PERIOD      9
 UBDSV1 SAVING           STO-SY ON UNIT   1016 AT TIME STEP      2, STRESS PERIOD      9
 UBDSV1 SAVING     FLOW-JA-FACE ON UNIT   1016 AT TIME STEP      2, STRESS PERIOD      9
 UBDSV06 SAVING              RCH IN MODEL TEST_TRANS       PACKAGE TEST_TRANS      CONNECTED TO MODEL TEST_TRANS       PACKAGE RCHA             ON UNIT   1016 AT TIME STEP      2, STRESS PERIOD      9
 UBDSV06 SAVING              CHD IN MODEL TEST_TRANS       PACKAGE TEST_TRANS      CONNECTED TO MODEL TEST_TRANS       PACKAGE CHD              ON UNIT   1016 AT TIME STEP      2, STRESS PERIOD      9

 HEAD WILL BE SAVED ON UNIT 1017 AT END OF TIME STEP    2, STRESS PERIOD    9
 UBDSV1 SAVING           STO-SS ON UNIT   1016 AT TIME STEP      3, STRESS PERIOD      9
 UBDSV1 SAVING           STO-SY ON UNIT   1016 AT TIME STEP      3, STRESS PERIOD      9
 UBDSV1 SAVING     FLOW-JA-FACE ON UNIT   1016 AT TIME STEP      3, STRESS PERIOD      9
 UBDSV06 SAVING              RCH IN MODEL TEST_TRANS       PACKAGE TEST_TRANS      CONNECTED TO MODEL TEST_TRANS       PACKAGE RCHA             ON UNIT   1016 AT TIME STEP      3, STRESS PERIOD      9
 UBDSV06 SAVING              CHD IN MODEL TEST_TRANS       PACKAGE TEST_TRANS      CONNECTED TO MODEL TEST_TRANS       PACKAGE CHD              ON UNIT   1016 AT TIME STEP      3, STRESS PERIOD      9

 HEAD WILL BE SAVED ON UNIT 1017 AT END OF TIME STEP    3, STRESS PERIOD    9
 UBDSV1 SAVING           STO-SS ON UNIT   1016 AT TIME STEP      4, STRESS PERIOD      9
 UBDSV1 SAVING           STO-SY ON UNIT   1016 AT TIME STEP      4, STRESS PERIOD      9
 UBDSV1 SAVING     FLOW-JA-FACE ON UNIT   1016 AT TIME STEP      4, STRESS PERIOD      9
 UBDSV06 SAVING              RCH IN MODEL TEST_TRANS       PACKAGE TEST_TRANS      CONNECTED TO MODEL TEST_TRANS       PACKAGE RCHA             ON UNIT   1016 AT TIME STEP      4, STRESS PERIOD      9
 UBDSV06 SAVING              CHD IN MODEL TEST_TRANS       PACKAGE TEST_TRANS      CONNECTED TO MODEL TEST_TRANS       PACKAGE CHD              ON UNIT   1016 AT TIME STEP      4, STRESS PERIOD      9

 HEAD WILL BE SAVED ON UNIT 1017 AT END OF TIME STEP    4, STRESS PERIOD    9
 UBDSV1 SAVING           STO-SS ON UNIT   1016 AT TIME STEP      5, STRESS PERIOD      9
 UBDSV1 SAVING           STO-SY ON UNIT   1016 AT TIME STEP      5, STRESS PERIOD      9
 UBDSV1 SAVING     FLOW-JA-FACE ON UNIT   1016 AT TIME STEP      5, STRESS PERIOD      9
 UBDSV06 SAVING              RCH IN MODEL TEST_TRANS       PACKAGE TEST_TRANS      CONNECTED TO MODEL TEST_TRANS       PACKAGE RCHA             ON UNIT   1016 AT TIME STEP      5, STRESS PERIOD      9
 UBDSV06 SAVING              CHD IN MODEL TEST_TRANS       PACKAGE TEST_TRANS      CONNECTED TO MODEL TEST_TRANS       PACKAGE CHD              ON UNIT   1016 AT TIME STEP      5, STRESS PERIOD      9

 HEAD WILL BE SAVED ON UNIT 1017 AT END OF TIME STEP    5, STRESS PERIOD    9
 UBDSV1 SAVING           STO-SS ON UNIT   1016 AT TIME STEP      6, STRESS PERIOD      9
 UBDSV1 SAVING           STO-SY ON UNIT   1016 AT TIME STEP      6, STRESS PERIOD      9
 UBDSV1 SAVING     FLOW-JA-FACE ON UNIT   1016 AT TIME STEP      6, STRESS PERIOD      9
 UBDSV06 SAVING              RCH IN MODEL TEST_TRANS       PACKAGE TEST_TRANS      CONNECTED TO MODEL TEST_TRANS       PACKAGE RCHA             ON UNIT   1016 AT TIME STEP      6, STRESS PERIOD      9
 UBDSV06 SAVING              CHD IN MODEL TEST_TRANS       PACKAGE TEST_TRANS      CONNECTED TO MODEL TEST_TRANS       PACKAGE CHD              ON UNIT   1016 AT TIME STEP      6, STRESS PERIOD      9

 HEAD WILL BE SAVED ON UNIT 1017 AT END OF TIME STEP    6, STRESS PERIOD    9
 UBDSV1 SAVING           STO-SS ON UNIT   1016 AT TIME STEP      7, STRESS PERIOD      9
 UBDSV1 SAVING           STO-SY ON UNIT   1016 AT TIME STEP      7, STRESS PERIOD      9
 UBDSV1 SAVING     FLOW-JA-FACE ON UNIT   1016 AT TIME STEP      7, STRESS PERIOD      9
 UBDSV06 SAVING              RCH IN MODEL TEST_TRANS       PACKAGE TEST_TRANS      CONNECTED TO MODEL TEST_TRANS       PACKAGE RCHA             ON UNIT   1016 AT TIME STEP      7, STRESS PERIOD      9
 UBDSV06 SAVING              CHD IN MODEL TEST_TRANS       PACKAGE TEST_TRANS      CONNECTED TO MODEL TEST_TRANS       PACKAGE CHD              ON UNIT   1016 AT TIME STEP      7, STRESS PERIOD      9

 HEAD WILL BE SAVED ON UNIT 1017 AT END OF TIME STEP    7, STRESS PERIOD    9
 UBDSV1 SAVING           STO-SS ON UNIT   1016 AT TIME STEP      8, STRESS PERIOD      9
 UBDSV1 SAVING           STO-SY ON UNIT   1016 AT TIME STEP      8, STRESS PERIOD      9
 UBDSV1 SAVING     FLOW-JA-FACE ON UNIT   1016 AT TIME STEP      8, STRESS PERIOD      9
 UBDSV06 SAVING              RCH IN MODEL TEST_TRANS       PACKAGE TEST_TRANS      CONNECTED TO MODEL TEST_TRANS       PACKAGE RCHA             ON UNIT   1016 AT TIME STEP      8, STRESS PERIOD      9
 UBDSV06 SAVING              CHD IN MODEL TEST_TRANS       PACKAGE TEST_TRANS      CONNECTED TO MODEL TEST_TRANS       PACKAGE CHD              ON UNIT   1016 AT TIME STEP      8, STRESS PERIOD      9

 HEAD WILL BE SAVED ON UNIT 1017 AT END OF TIME STEP    8, STRESS PERIOD    9
 UBDSV1 SAVING           STO-SS ON UNIT   1016 AT TIME STEP      9, STRESS PERIOD      9
 UBDSV1 SAVING           STO-SY ON UNIT   1016 AT TIME STEP      9, STRESS PERIOD      9
 UBDSV1 SAVING     FLOW-JA-FACE ON UNIT   1016 AT TIME STEP      9, STRESS PERIOD      9
 UBDSV06 SAVING              RCH IN MODEL TEST_TRANS       PACKAGE TEST_TRANS      CONNECTED TO MODEL TEST_TRANS       PACKAGE RCHA             ON UNIT   1016 AT TIME STEP      9, STRESS PERIOD      9
 UBDSV06 SAVING              CHD IN MODEL TEST_TRANS       PACKAGE TEST_TRANS      CONNECTED TO MODEL TEST_TRANS       PACKAGE CHD              ON UNIT   1016 AT TIME STEP      9, STRESS PERIOD      9

 HEAD WILL BE SAVED ON UNIT 1017 AT END OF TIME STEP    9, STRESS PERIOD    9
 UBDSV1 SAVING           STO-SS ON UNIT   1016 AT TIME STEP     10, STRESS PERIOD      9
 UBDSV1 SAVING           STO-SY ON UNIT   1016 AT TIME STEP     10, STRESS PERIOD      9
 UBDSV1 SAVING     FLOW-JA-FACE ON UNIT   1016 AT TIME STEP     10, STRESS PERIOD      9
 UBDSV06 SAVING              RCH IN MODEL TEST_TRANS       PACKAGE TEST_TRANS      CONNECTED TO MODEL TEST_TRANS       PACKAGE RCHA             ON UNIT   1016 AT TIME STEP     10, STRESS PERIOD      9
 UBDSV06 SAVING              CHD IN MODEL TEST_TRANS       PACKAGE TEST_TRANS      CONNECTED TO MODEL TEST_TRANS       PACKAGE CHD              ON UNIT   1016 AT TIME STEP     10, STRESS PERIOD      9
1
  HEAD IN LAYER   1 AT END OF TIME STEP  10 IN STRESS PERIOD    9
  ---------------------------------------------------------------------------

            1           2           3           4           5           6           7           8           9          10
           11          12          13          14          15          16          17          18          19          20
           21          22          23          24          25          26          27          28          29          30
 ........................................................................................................................
   1    27.71       27.71       27.70       27.69       27.67       27.65       27.62       27.59       27.56       27.52    
        27.47       27.42       27.36       27.30       27.23       27.16       27.08       26.99       26.89       26.79    
        26.68       26.55       26.42       26.27       26.11       25.93       25.73       25.50       25.24       24.94    
   2    27.71       27.71       27.70       27.69       27.67       27.65       27.62       27.59       27.56       27.52    
        27.47       27.42       27.36       27.30       27.23       27.16       27.08       26.99       26.89       26.79    
        26.68       26.55       26.42       26.27       26.11       25.93       25.73       25.50       25.24       24.94    
   3    27.71       27.71       27.70       27.69       27.67       27.65       27.62       27.59       27.56       27.52    
        27.47       27.42       27.36       27.30       27.23       27.16       27.08       26.99       26.89       26.79    
        26.68       26.55       26.42       26.27       26.11       25.93       25.73       25.50       25.24       24.94    
   4    27.71       27.71       27.70       27.69       27.67       27.65       27.62       27.59       27.56       27.52    
        27.47       27.42       27.36       27.30       27.23       27.16       27.08       26.99       26.89       26.79    
        26.68       26.55       26.42       26.27       26.11       25.93       25.73       25.50       25.24       24.94    
   5    27.71       27.71       27.70       27.69       27.67       27.65       27.62       27.59       27.56       27.52    
        27.47       27.42       27.36       27.30       27.23       27.16       27.08       26.99       26.89       26.79    
        26.68       26.55       26.42       26.27       26.11       25.93       25.73       25.50       25.24       24.94    
   6    27.71       27.71       27.70       27.69       27.67       27.65       27.62       27.59       27.56       27.52    
        27.47       27.42       27.36       27.30       27.23       27.16       27.08       26.99       26.89       26.79    
        26.68       26.55       26.42       26.27       26.11       25.93       25.73       25.50       25.24       24.94    
   7    27.71       27.71       27.70       27.69       27.67       27.65       27.62       27.59       27.56       27.52    
        27.47       27.42       27.36       27.30       27.23       27.16       27.08       26.99       26.89       26.79    
        26.68       26.55       26.42       26.27       26.11       25.93       25.73       25.50       25.24       24.94    
   8    27.71       27.71       27.70       27.69       27.67       27.65       27.62       27.59       27.56       27.52    
        27.47       27.42       27.36       27.30       27.23       27.16       27.08       26.99       26.89       26.79    
        26.68       26.55       26.42       26.27       26.11       25.93       25.73       25.50       25.24       24.94    
   9    27.71       27.71       27.70       27.69       27.67       27.65       27.62       27.59       27.56       27.52    
        27.47       27.42       27.36       27.30       27.23       27.16       27.08       26.99       26.89       26.79    
        26.68       26.55       26.42       26.27       26.11       25.93       25.73       25.50       25.24       24.94    
  10    27.71       27.71       27.70       27.69       27.67       27.65       27.62       27.59       27.56       27.52    
        27.47       27.42       27.36       27.30       27.23       27.16       27.08       26.99       26.89       26.79    
        26.68       26.55       26.42       26.27       26.11       25.93       25.73       25.50       25.24       24.94    
  11    27.71       27.71       27.70       27.69       27.67       27.65       27.62       27.59       27.56       27.52    
        27.47       27.42       27.36       27.30       27.23       27.16       27.08       26.99       26.89       26.79    
        26.68       26.55       26.42       26.27       26.11       25.93       25.73       25.50       25.24       24.94    
  12    27.71       27.71       27.70       27.69       27.67       27.65       27.62       27.59       27.56       27.52    
        27.47       27.42       27.36       27.30       27.23       27.16       27.08       26.99       26.89       26.79    
        26.68       26.55       26.42       26.27       26.11       25.93       25.73       25.50       25.24       24.94    
  13    27.71       27.71       27.70       27.69       27.67       27.65       27.62       27.59       27.56       27.52    
        27.47       27.42       27.36       27.30       27.23       27.16       27.08       26.99       26.89       26.79    
        26.68       26.55       26.42       26.27       26.11       25.93       25.73       25.50       25.24       24.94    
  14    27.71       27.71       27.70       27.69       27.67       27.65       27.62       27.59       27.56       27.52    
        27.47       27.42       27.36       27.30       27.23       27.16       27.08       26.99       26.89       26.79    
        26.68       26.55       26.42       26.27       26.11       25.93       25.73       25.50       25.24       24.94    
  15    27.71       27.71       27.70       27.69       27.67       27.65       27.62       27.59       27.56       27.52    
        27.47       27.42       27.36       27.30       27.23       27.16       27.08       26.99       26.89       26.79    
        26.68       26.55       26.42       26.27       26.11       25.93       25.73       25.50       25.24       24.94    
  16    27.71       27.71       27.70       27.69       27.67       27.65       27.62       27.59       27.56       27.52    
        27.47       27.42       27.36       27.30       27.23       27.16       27.08       26.99       26.89       26.79    
        26.68       26.55       26.42       26.27       26.11       25.93       25.73       25.50       25.24       24.94    
  17    27.71       27.71       27.70       27.69       27.67       27.65       27.62       27.59       27.56       27.52    
        27.47       27.42       27.36       27.30       27.23       27.16       27.08       26.99       26.89       26.79    
        26.68       26.55       26.42       26.27       26.11       25.93       25.73       25.50       25.24       24.94    
  18    27.71       27.71       27.70       27.69       27.67       27.65       27.62       27.59       27.56       27.52    
        27.47       27.42       27.36       27.30       27.23       27.16       27.08       26.99       26.89       26.79    
        26.68       26.55       26.42       26.27       26.11       25.93       25.73       25.50       25.24       24.94    
  19    27.71       27.71       27.70       27.69       27.67       27.65       27.62       27.59       27.56       27.52    
        27.47       27.42       27.36       27.30       27.23       27.16       27.08       26.99       26.89       26.79    
        26.68       26.55       26.42       26.27       26.11       25.93       25.73       25.50       25.24       24.94    
  20    27.71       27.71       27.70       27.69       27.67       27.65       27.62       27.59       27.56       27.52    
        27.47       27.42       27.36       27.30       27.23       27.16       27.08       26.99       26.89       26.79    
        26.68       26.55       26.42       26.27       26.11       25.93       25.73       25.50       25.24       24.94    
  21    27.71       27.71       27.70       27.69       27.67       27.65       27.62       27.59       27.56       27.52    
        27.47       27.42       27.36       27.30       27.23       27.16       27.08       26.99       26.89       26.79    
        26.68       26.55       26.42       26.27       26.11       25.93       25.73       25.50       25.24       24.94    
  22    27.71       27.71       27.70       27.69       27.67       27.65       27.62       27.59       27.56       27.52    
        27.47       27.42       27.36       27.30       27.23       27.16       27.08       26.99       26.89       26.79    
        26.68       26.55       26.42       26.27       26.11       25.93       25.73       25.50       25.24       24.94    
  23    27.71       27.71       27.70       27.69       27.67       27.65       27.62       27.59       27.56       27.52    
        27.47       27.42       27.36       27.30       27.23       27.16       27.08       26.99       26.89       26.79    
        26.68       26.55       26.42       26.27       26.11       25.93       25.73       25.50       25.24       24.94    
  24    27.71       27.71       27.70       27.69       27.67       27.65       27.62       27.59       27.56       27.52    
        27.47       27.42       27.36       27.30       27.23       27.16       27.08       26.99       26.89       26.79    
        26.68       26.55       26.42       26.27       26.11       25.93       25.73       25.50       25.24       24.94    
  25    27.71       27.71       27.70       27.69       27.67       27.65       27.62       27.59       27.56       27.52    
        27.47       27.42       27.36       27.30       27.23       27.16       27.08       26.99       26.89       26.79    
        26.68       26.55       26.42       26.27       26.11       25.93       25.73       25.50       25.24       24.94    
  26    27.71       27.71       27.70       27.69       27.67       27.65       27.62       27.59       27.56       27.52    
        27.47       27.42       27.36       27.30       27.23       27.16       27.08       26.99       26.89       26.79    
        26.68       26.55       26.42       26.27       26.11       25.93       25.73       25.50       25.24       24.94    
  27    27.71       27.71       27.70       27.69       27.67       27.65       27.62       27.59       27.56       27.52    
        27.47       27.42       27.36       27.30       27.23       27.16       27.08       26.99       26.89       26.79    
        26.68       26.55       26.42       26.27       26.11       25.93       25.73       25.50       25.24       24.94    
  28    27.71       27.71       27.70       27.69       27.67       27.65       27.62       27.59       27.56       27.52    
        27.47       27.42       27.36       27.30       27.23       27.16       27.08       26.99       26.89       26.79    
        26.68       26.55       26.42       26.27       26.11       25.93       25.73       25.50       25.24       24.94    
  29    27.71       27.71       27.70       27.69       27.67       27.65       27.62       27.59       27.56       27.52    
        27.47       27.42       27.36       27.30       27.23       27.16       27.08       26.99       26.89       26.79    
        26.68       26.55       26.42       26.27       26.11       25.93       25.73       25.50       25.24       24.94    
  30    27.71       27.71       27.70       27.69       27.67       27.65       27.62       27.59       27.56       27.52    
        27.47       27.42       27.36       27.30       27.23       27.16       27.08       26.99       26.89       26.79    
        26.68       26.55       26.42       26.27       26.11       25.93       25.73       25.50       25.24       24.94    

 HEAD WILL BE SAVED ON UNIT 1017 AT END OF TIME STEP   10, STRESS PERIOD    9


  VOLUME BUDGET FOR ENTIRE MODEL AT END OF TIME STEP   10, STRESS PERIOD   9
  ---------------------------------------------------------------------------------------------------

     CUMULATIVE VOLUME      L**3       RATES FOR THIS TIME STEP      L**3/T          PACKAGE NAME    
     ------------------                 ------------------------                     ----------------

           IN:                                      IN:
           ---                                      ---
              STO-SS =          21.3423                STO-SS =       3.0318E-02     STORAGE         
              STO-SY =       13546.0000                STO-SY =          19.8011     STORAGE         
                 RCH =       33489.0597                   RCH =         143.0141     RCHA            
                 CHD =        1052.4133                   CHD =           0.0000     CHD             

            TOTAL IN =       48108.8152              TOTAL IN =         162.8455

          OUT:                                     OUT:
          ----                                     ----
              STO-SS =           8.9558                STO-SS =           0.0000     STORAGE         
              STO-SY =        5927.9422                STO-SY =           0.0000     STORAGE         
                 RCH =           0.0000                   RCH =           0.0000     RCHA            
                 CHD =       42171.4828                   CHD =         162.8421     CHD             

           TOTAL OUT =       48108.3808             TOTAL OUT =         162.8421

            IN - OUT =           0.4344              IN - OUT =       3.3923E-03

 PERCENT DISCREPANCY =           0.00     PERCENT DISCREPANCY =           0.00




         TIME SUMMARY AT END OF TIME STEP   10 IN STRESS PERIOD    9
                    SECONDS     MINUTES      HOURS       DAYS        YEARS
                    -----------------------------------------------------------
   TIME STEP LENGTH 2.59200E+05  4320.0      72.000      3.0000     8.21355E-03
 STRESS PERIOD TIME 2.59200E+06  43200.      720.00      30.000     8.21355E-02
         TOTAL TIME 2.08224E+07 3.47040E+05  5784.0      241.00     0.65982    

 OUTPUT CONTROL FOR STRESS PERIOD 10 IS REPEATED USING SETTINGS FROM A PREVIOUS STRESS PERIOD.


 STRESS PERIOD 10 IS TRANSIENT


                 RECHARGE =  0.2191780E-02
 UBDSV1 SAVING           STO-SS ON UNIT   1016 AT TIME STEP      1, STRESS PERIOD     10
 UBDSV1 SAVING           STO-SY ON UNIT   1016 AT TIME STEP      1, STRESS PERIOD     10
 UBDSV1 SAVING     FLOW-JA-FACE ON UNIT   1016 AT TIME STEP      1, STRESS PERIOD     10
 UBDSV06 SAVING              RCH IN MODEL TEST_TRANS       PACKAGE TEST_TRANS      CONNECTED TO MODEL TEST_TRANS       PACKAGE RCHA             ON UNIT   1016 AT TIME STEP      1, STRESS PERIOD     10
 UBDSV06 SAVING              CHD IN MODEL TEST_TRANS       PACKAGE TEST_TRANS      CONNECTED TO MODEL TEST_TRANS       PACKAGE CHD              ON UNIT   1016 AT TIME STEP      1, STRESS PERIOD     10
1
  HEAD IN LAYER   1 AT END OF TIME STEP   1 IN STRESS PERIOD   10
  ---------------------------------------------------------------------------

            1           2           3           4           5           6           7           8           9          10
           11          12          13          14          15          16          17          18          19          20
           21          22          23          24          25          26          27          28          29          30
 ........................................................................................................................
   1    27.72       27.72       27.71       27.69       27.68       27.65       27.63       27.60       27.56       27.52    
        27.48       27.42       27.37       27.31       27.24       27.16       27.08       26.99       26.90       26.79    
        26.68       26.55       26.41       26.26       26.09       25.89       25.66       25.38       24.99       24.34    
   2    27.72       27.72       27.71       27.69       27.68       27.65       27.63       27.60       27.56       27.52    
        27.48       27.42       27.37       27.31       27.24       27.16       27.08       26.99       26.90       26.79    
        26.68       26.55       26.41       26.26       26.09       25.89       25.66       25.38       24.99       24.34    
   3    27.72       27.72       27.71       27.69       27.68       27.65       27.63       27.60       27.56       27.52    
        27.48       27.42       27.37       27.31       27.24       27.16       27.08       26.99       26.90       26.79    
        26.68       26.55       26.41       26.26       26.09       25.89       25.66       25.38       24.99       24.34    
   4    27.72       27.72       27.71       27.69       27.68       27.65       27.63       27.60       27.56       27.52    
        27.48       27.42       27.37       27.31       27.24       27.16       27.08       26.99       26.90       26.79    
        26.68       26.55       26.41       26.26       26.09       25.89       25.66       25.38       24.99       24.34    
   5    27.72       27.72       27.71       27.69       27.68       27.65       27.63       27.60       27.56       27.52    
        27.48       27.42       27.37       27.31       27.24       27.16       27.08       26.99       26.90       26.79    
        26.68       26.55       26.41       26.26       26.09       25.89       25.66       25.38       24.99       24.34    
   6    27.72       27.72       27.71       27.69       27.68       27.65       27.63       27.60       27.56       27.52    
        27.48       27.42       27.37       27.31       27.24       27.16       27.08       26.99       26.90       26.79    
        26.68       26.55       26.41       26.26       26.09       25.89       25.66       25.38       24.99       24.34    
   7    27.72       27.72       27.71       27.69       27.68       27.65       27.63       27.60       27.56       27.52    
        27.48       27.42       27.37       27.31       27.24       27.16       27.08       26.99       26.90       26.79    
        26.68       26.55       26.41       26.26       26.09       25.89       25.66       25.38       24.99       24.34    
   8    27.72       27.72       27.71       27.69       27.68       27.65       27.63       27.60       27.56       27.52    
        27.48       27.42       27.37       27.31       27.24       27.16       27.08       26.99       26.90       26.79    
        26.68       26.55       26.41       26.26       26.09       25.89       25.66       25.38       24.99       24.34    
   9    27.72       27.72       27.71       27.69       27.68       27.65       27.63       27.60       27.56       27.52    
        27.48       27.42       27.37       27.31       27.24       27.16       27.08       26.99       26.90       26.79    
        26.68       26.55       26.41       26.26       26.09       25.89       25.66       25.38       24.99       24.34    
  10    27.72       27.72       27.71       27.69       27.68       27.65       27.63       27.60       27.56       27.52    
        27.48       27.42       27.37       27.31       27.24       27.16       27.08       26.99       26.90       26.79    
        26.68       26.55       26.41       26.26       26.09       25.89       25.66       25.38       24.99       24.34    
  11    27.72       27.72       27.71       27.69       27.68       27.65       27.63       27.60       27.56       27.52    
        27.48       27.42       27.37       27.31       27.24       27.16       27.08       26.99       26.90       26.79    
        26.68       26.55       26.41       26.26       26.09       25.89       25.66       25.38       24.99       24.34    
  12    27.72       27.72       27.71       27.69       27.68       27.65       27.63       27.60       27.56       27.52    
        27.48       27.42       27.37       27.31       27.24       27.16       27.08       26.99       26.90       26.79    
        26.68       26.55       26.41       26.26       26.09       25.89       25.66       25.38       24.99       24.34    
  13    27.72       27.72       27.71       27.69       27.68       27.65       27.63       27.60       27.56       27.52    
        27.48       27.42       27.37       27.31       27.24       27.16       27.08       26.99       26.90       26.79    
        26.68       26.55       26.41       26.26       26.09       25.89       25.66       25.38       24.99       24.34    
  14    27.72       27.72       27.71       27.69       27.68       27.65       27.63       27.60       27.56       27.52    
        27.48       27.42       27.37       27.31       27.24       27.16       27.08       26.99       26.90       26.79    
        26.68       26.55       26.41       26.26       26.09       25.89       25.66       25.38       24.99       24.34    
  15    27.72       27.72       27.71       27.69       27.68       27.65       27.63       27.60       27.56       27.52    
        27.48       27.42       27.37       27.31       27.24       27.16       27.08       26.99       26.90       26.79    
        26.68       26.55       26.41       26.26       26.09       25.89       25.66       25.38       24.99       24.34    
  16    27.72       27.72       27.71       27.69       27.68       27.65       27.63       27.60       27.56       27.52    
        27.48       27.42       27.37       27.31       27.24       27.16       27.08       26.99       26.90       26.79    
        26.68       26.55       26.41       26.26       26.09       25.89       25.66       25.38       24.99       24.34    
  17    27.72       27.72       27.71       27.69       27.68       27.65       27.63       27.60       27.56       27.52    
        27.48       27.42       27.37       27.31       27.24       27.16       27.08       26.99       26.90       26.79    
        26.68       26.55       26.41       26.26       26.09       25.89       25.66       25.38       24.99       24.34    
  18    27.72       27.72       27.71       27.69       27.68       27.65       27.63       27.60       27.56       27.52    
        27.48       27.42       27.37       27.31       27.24       27.16       27.08       26.99       26.90       26.79    
        26.68       26.55       26.41       26.26       26.09       25.89       25.66       25.38       24.99       24.34    
  19    27.72       27.72       27.71       27.69       27.68       27.65       27.63       27.60       27.56       27.52    
        27.48       27.42       27.37       27.31       27.24       27.16       27.08       26.99       26.90       26.79    
        26.68       26.55       26.41       26.26       26.09       25.89       25.66       25.38       24.99       24.34    
  20    27.72       27.72       27.71       27.69       27.68       27.65       27.63       27.60       27.56       27.52    
        27.48       27.42       27.37       27.31       27.24       27.16       27.08       26.99       26.90       26.79    
        26.68       26.55       26.41       26.26       26.09       25.89       25.66       25.38       24.99       24.34    
  21    27.72       27.72       27.71       27.69       27.68       27.65       27.63       27.60       27.56       27.52    
        27.48       27.42       27.37       27.31       27.24       27.16       27.08       26.99       26.90       26.79    
        26.68       26.55       26.41       26.26       26.09       25.89       25.66       25.38       24.99       24.34    
  22    27.72       27.72       27.71       27.69       27.68       27.65       27.63       27.60       27.56       27.52    
        27.48       27.42       27.37       27.31       27.24       27.16       27.08       26.99       26.90       26.79    
        26.68       26.55       26.41       26.26       26.09       25.89       25.66       25.38       24.99       24.34    
  23    27.72       27.72       27.71       27.69       27.68       27.65       27.63       27.60       27.56       27.52    
        27.48       27.42       27.37       27.31       27.24       27.16       27.08       26.99       26.90       26.79    
        26.68       26.55       26.41       26.26       26.09       25.89       25.66       25.38       24.99       24.34    
  24    27.72       27.72       27.71       27.69       27.68       27.65       27.63       27.60       27.56       27.52    
        27.48       27.42       27.37       27.31       27.24       27.16       27.08       26.99       26.90       26.79    
        26.68       26.55       26.41       26.26       26.09       25.89       25.66       25.38       24.99       24.34    
  25    27.72       27.72       27.71       27.69       27.68       27.65       27.63       27.60       27.56       27.52    
        27.48       27.42       27.37       27.31       27.24       27.16       27.08       26.99       26.90       26.79    
        26.68       26.55       26.41       26.26       26.09       25.89       25.66       25.38       24.99       24.34    
  26    27.72       27.72       27.71       27.69       27.68       27.65       27.63       27.60       27.56       27.52    
        27.48       27.42       27.37       27.31       27.24       27.16       27.08       26.99       26.90       26.79    
        26.68       26.55       26.41       26.26       26.09       25.89       25.66       25.38       24.99       24.34    
  27    27.72       27.72       27.71       27.69       27.68       27.65       27.63       27.60       27.56       27.52    
        27.48       27.42       27.37       27.31       27.24       27.16       27.08       26.99       26.90       26.79    
        26.68       26.55       26.41       26.26       26.09       25.89       25.66       25.38       24.99       24.34    
  28    27.72       27.72       27.71       27.69       27.68       27.65       27.63       27.60       27.56       27.52    
        27.48       27.42       27.37       27.31       27.24       27.16       27.08       26.99       26.90       26.79    
        26.68       26.55       26.41       26.26       26.09       25.89       25.66       25.38       24.99       24.34    
  29    27.72       27.72       27.71       27.69       27.68       27.65       27.63       27.60       27.56       27.52    
        27.48       27.42       27.37       27.31       27.24       27.16       27.08       26.99       26.90       26.79    
        26.68       26.55       26.41       26.26       26.09       25.89       25.66       25.38       24.99       24.34    
  30    27.72       27.72       27.71       27.69       27.68       27.65       27.63       27.60       27.56       27.52    
        27.48       27.42       27.37       27.31       27.24       27.16       27.08       26.99       26.90       26.79    
        26.68       26.55       26.41       26.26       26.09       25.89       25.66       25.38       24.99       24.34    

 HEAD WILL BE SAVED ON UNIT 1017 AT END OF TIME STEP    1, STRESS PERIOD   10



         TIME SUMMARY AT END OF TIME STEP    1 IN STRESS PERIOD   10
                    SECONDS     MINUTES      HOURS       DAYS        YEARS
                    -----------------------------------------------------------
   TIME STEP LENGTH 2.59200E+05  4320.0      72.000      3.0000     8.21355E-03
 STRESS PERIOD TIME 2.59200E+05  4320.0      72.000      3.0000     8.21355E-03
         TOTAL TIME 2.10816E+07 3.51360E+05  5856.0      244.00     0.66804    
 UBDSV1 SAVING           STO-SS ON UNIT   1016 AT TIME STEP      2, STRESS PERIOD     10
 UBDSV1 SAVING           STO-SY ON UNIT   1016 AT TIME STEP      2, STRESS PERIOD     10
 UBDSV1 SAVING     FLOW-JA-FACE ON UNIT   1016 AT TIME STEP      2, STRESS PERIOD     10
 UBDSV06 SAVING              RCH IN MODEL TEST_TRANS       PACKAGE TEST_TRANS      CONNECTED TO MODEL TEST_TRANS       PACKAGE RCHA             ON UNIT   1016 AT TIME STEP      2, STRESS PERIOD     10
 UBDSV06 SAVING              CHD IN MODEL TEST_TRANS       PACKAGE TEST_TRANS      CONNECTED TO MODEL TEST_TRANS       PACKAGE CHD              ON UNIT   1016 AT TIME STEP      2, STRESS PERIOD     10

 HEAD WILL BE SAVED ON UNIT 1017 AT END OF TIME STEP    2, STRESS PERIOD   10
 UBDSV1 SAVING           STO-SS ON UNIT   1016 AT TIME STEP      3, STRESS PERIOD     10
 UBDSV1 SAVING           STO-SY ON UNIT   1016 AT TIME STEP      3, STRESS PERIOD     10
 UBDSV1 SAVING     FLOW-JA-FACE ON UNIT   1016 AT TIME STEP      3, STRESS PERIOD     10
 UBDSV06 SAVING              RCH IN MODEL TEST_TRANS       PACKAGE TEST_TRANS      CONNECTED TO MODEL TEST_TRANS       PACKAGE RCHA             ON UNIT   1016 AT TIME STEP      3, STRESS PERIOD     10
 UBDSV06 SAVING              CHD IN MODEL TEST_TRANS       PACKAGE TEST_TRANS      CONNECTED TO MODEL TEST_TRANS       PACKAGE CHD              ON UNIT   1016 AT TIME STEP      3, STRESS PERIOD     10

 HEAD WILL BE SAVED ON UNIT 1017 AT END OF TIME STEP    3, STRESS PERIOD   10
 UBDSV1 SAVING           STO-SS ON UNIT   1016 AT TIME STEP      4, STRESS PERIOD     10
 UBDSV1 SAVING           STO-SY ON UNIT   1016 AT TIME STEP      4, STRESS PERIOD     10
 UBDSV1 SAVING     FLOW-JA-FACE ON UNIT   1016 AT TIME STEP      4, STRESS PERIOD     10
 UBDSV06 SAVING              RCH IN MODEL TEST_TRANS       PACKAGE TEST_TRANS      CONNECTED TO MODEL TEST_TRANS       PACKAGE RCHA             ON UNIT   1016 AT TIME STEP      4, STRESS PERIOD     10
 UBDSV06 SAVING              CHD IN MODEL TEST_TRANS       PACKAGE TEST_TRANS      CONNECTED TO MODEL TEST_TRANS       PACKAGE CHD              ON UNIT   1016 AT TIME STEP      4, STRESS PERIOD     10

 HEAD WILL BE SAVED ON UNIT 1017 AT END OF TIME STEP    4, STRESS PERIOD   10
 UBDSV1 SAVING           STO-SS ON UNIT   1016 AT TIME STEP      5, STRESS PERIOD     10
 UBDSV1 SAVING           STO-SY ON UNIT   1016 AT TIME STEP      5, STRESS PERIOD     10
 UBDSV1 SAVING     FLOW-JA-FACE ON UNIT   1016 AT TIME STEP      5, STRESS PERIOD     10
 UBDSV06 SAVING              RCH IN MODEL TEST_TRANS       PACKAGE TEST_TRANS      CONNECTED TO MODEL TEST_TRANS       PACKAGE RCHA             ON UNIT   1016 AT TIME STEP      5, STRESS PERIOD     10
 UBDSV06 SAVING              CHD IN MODEL TEST_TRANS       PACKAGE TEST_TRANS      CONNECTED TO MODEL TEST_TRANS       PACKAGE CHD              ON UNIT   1016 AT TIME STEP      5, STRESS PERIOD     10

 HEAD WILL BE SAVED ON UNIT 1017 AT END OF TIME STEP    5, STRESS PERIOD   10
 UBDSV1 SAVING           STO-SS ON UNIT   1016 AT TIME STEP      6, STRESS PERIOD     10
 UBDSV1 SAVING           STO-SY ON UNIT   1016 AT TIME STEP      6, STRESS PERIOD     10
 UBDSV1 SAVING     FLOW-JA-FACE ON UNIT   1016 AT TIME STEP      6, STRESS PERIOD     10
 UBDSV06 SAVING              RCH IN MODEL TEST_TRANS       PACKAGE TEST_TRANS      CONNECTED TO MODEL TEST_TRANS       PACKAGE RCHA             ON UNIT   1016 AT TIME STEP      6, STRESS PERIOD     10
 UBDSV06 SAVING              CHD IN MODEL TEST_TRANS       PACKAGE TEST_TRANS      CONNECTED TO MODEL TEST_TRANS       PACKAGE CHD              ON UNIT   1016 AT TIME STEP      6, STRESS PERIOD     10

 HEAD WILL BE SAVED ON UNIT 1017 AT END OF TIME STEP    6, STRESS PERIOD   10
 UBDSV1 SAVING           STO-SS ON UNIT   1016 AT TIME STEP      7, STRESS PERIOD     10
 UBDSV1 SAVING           STO-SY ON UNIT   1016 AT TIME STEP      7, STRESS PERIOD     10
 UBDSV1 SAVING     FLOW-JA-FACE ON UNIT   1016 AT TIME STEP      7, STRESS PERIOD     10
 UBDSV06 SAVING              RCH IN MODEL TEST_TRANS       PACKAGE TEST_TRANS      CONNECTED TO MODEL TEST_TRANS       PACKAGE RCHA             ON UNIT   1016 AT TIME STEP      7, STRESS PERIOD     10
 UBDSV06 SAVING              CHD IN MODEL TEST_TRANS       PACKAGE TEST_TRANS      CONNECTED TO MODEL TEST_TRANS       PACKAGE CHD              ON UNIT   1016 AT TIME STEP      7, STRESS PERIOD     10

 HEAD WILL BE SAVED ON UNIT 1017 AT END OF TIME STEP    7, STRESS PERIOD   10
 UBDSV1 SAVING           STO-SS ON UNIT   1016 AT TIME STEP      8, STRESS PERIOD     10
 UBDSV1 SAVING           STO-SY ON UNIT   1016 AT TIME STEP      8, STRESS PERIOD     10
 UBDSV1 SAVING     FLOW-JA-FACE ON UNIT   1016 AT TIME STEP      8, STRESS PERIOD     10
 UBDSV06 SAVING              RCH IN MODEL TEST_TRANS       PACKAGE TEST_TRANS      CONNECTED TO MODEL TEST_TRANS       PACKAGE RCHA             ON UNIT   1016 AT TIME STEP      8, STRESS PERIOD     10
 UBDSV06 SAVING              CHD IN MODEL TEST_TRANS       PACKAGE TEST_TRANS      CONNECTED TO MODEL TEST_TRANS       PACKAGE CHD              ON UNIT   1016 AT TIME STEP      8, STRESS PERIOD     10

 HEAD WILL BE SAVED ON UNIT 1017 AT END OF TIME STEP    8, STRESS PERIOD   10
 UBDSV1 SAVING           STO-SS ON UNIT   1016 AT TIME STEP      9, STRESS PERIOD     10
 UBDSV1 SAVING           STO-SY ON UNIT   1016 AT TIME STEP      9, STRESS PERIOD     10
 UBDSV1 SAVING     FLOW-JA-FACE ON UNIT   1016 AT TIME STEP      9, STRESS PERIOD     10
 UBDSV06 SAVING              RCH IN MODEL TEST_TRANS       PACKAGE TEST_TRANS      CONNECTED TO MODEL TEST_TRANS       PACKAGE RCHA             ON UNIT   1016 AT TIME STEP      9, STRESS PERIOD     10
 UBDSV06 SAVING              CHD IN MODEL TEST_TRANS       PACKAGE TEST_TRANS      CONNECTED TO MODEL TEST_TRANS       PACKAGE CHD              ON UNIT   1016 AT TIME STEP      9, STRESS PERIOD     10

 HEAD WILL BE SAVED ON UNIT 1017 AT END OF TIME STEP    9, STRESS PERIOD   10
 UBDSV1 SAVING           STO-SS ON UNIT   1016 AT TIME STEP     10, STRESS PERIOD     10
 UBDSV1 SAVING           STO-SY ON UNIT   1016 AT TIME STEP     10, STRESS PERIOD     10
 UBDSV1 SAVING     FLOW-JA-FACE ON UNIT   1016 AT TIME STEP     10, STRESS PERIOD     10
 UBDSV06 SAVING              RCH IN MODEL TEST_TRANS       PACKAGE TEST_TRANS      CONNECTED TO MODEL TEST_TRANS       PACKAGE RCHA             ON UNIT   1016 AT TIME STEP     10, STRESS PERIOD     10
 UBDSV06 SAVING              CHD IN MODEL TEST_TRANS       PACKAGE TEST_TRANS      CONNECTED TO MODEL TEST_TRANS       PACKAGE CHD              ON UNIT   1016 AT TIME STEP     10, STRESS PERIOD     10
1
  HEAD IN LAYER   1 AT END OF TIME STEP  10 IN STRESS PERIOD   10
  ---------------------------------------------------------------------------

            1           2           3           4           5           6           7           8           9          10
           11          12          13          14          15          16          17          18          19          20
           21          22          23          24          25          26          27          28          29          30
 ........................................................................................................................
   1    27.77       27.77       27.76       27.74       27.72       27.70       27.67       27.64       27.60       27.56    
        27.51       27.45       27.39       27.33       27.25       27.17       27.08       26.98       26.87       26.75    
        26.62       26.48       26.32       26.15       25.95       25.73       25.48       25.18       24.82       24.34    
   2    27.77       27.77       27.76       27.74       27.72       27.70       27.67       27.64       27.60       27.56    
        27.51       27.45       27.39       27.33       27.25       27.17       27.08       26.98       26.87       26.75    
        26.62       26.48       26.32       26.15       25.95       25.73       25.48       25.18       24.82       24.34    
   3    27.77       27.77       27.76       27.74       27.72       27.70       27.67       27.64       27.60       27.56    
        27.51       27.45       27.39       27.33       27.25       27.17       27.08       26.98       26.87       26.75    
        26.62       26.48       26.32       26.15       25.95       25.73       25.48       25.18       24.82       24.34    
   4    27.77       27.77       27.76       27.74       27.72       27.70       27.67       27.64       27.60       27.56    
        27.51       27.45       27.39       27.33       27.25       27.17       27.08       26.98       26.87       26.75    
        26.62       26.48       26.32       26.15       25.95       25.73       25.48       25.18       24.82       24.34    
   5    27.77       27.77       27.76       27.74       27.72       27.70       27.67       27.64       27.60       27.56    
        27.51       27.45       27.39       27.33       27.25       27.17       27.08       26.98       26.87       26.75    
        26.62       26.48       26.32       26.15       25.95       25.73       25.48       25.18       24.82       24.34    
   6    27.77       27.77       27.76       27.74       27.72       27.70       27.67       27.64       27.60       27.56    
        27.51       27.45       27.39       27.33       27.25       27.17       27.08       26.98       26.87       26.75    
        26.62       26.48       26.32       26.15       25.95       25.73       25.48       25.18       24.82       24.34    
   7    27.77       27.77       27.76       27.74       27.72       27.70       27.67       27.64       27.60       27.56    
        27.51       27.45       27.39       27.33       27.25       27.17       27.08       26.98       26.87       26.75    
        26.62       26.48       26.32       26.15       25.95       25.73       25.48       25.18       24.82       24.34    
   8    27.77       27.77       27.76       27.74       27.72       27.70       27.67       27.64       27.60       27.56    
        27.51       27.45       27.39       27.33       27.25       27.17       27.08       26.98       26.87       26.75    
        26.62       26.48       26.32       26.15       25.95       25.73       25.48       25.18       24.82       24.34    
   9    27.77       27.77       27.76       27.74       27.72       27.70       27.67       27.64       27.60       27.56    
        27.51       27.45       27.39       27.33       27.25       27.17       27.08       26.98       26.87       26.75    
        26.62       26.48       26.32       26.15       25.95       25.73       25.48       25.18       24.82       24.34    
  10    27.77       27.77       27.76       27.74       27.72       27.70       27.67       27.64       27.60       27.56    
        27.51       27.45       27.39       27.33       27.25       27.17       27.08       26.98       26.87       26.75    
        26.62       26.48       26.32       26.15       25.95       25.73       25.48       25.18       24.82       24.34    
  11    27.77       27.77       27.76       27.74       27.72       27.70       27.67       27.64       27.60       27.56    
        27.51       27.45       27.39       27.33       27.25       27.17       27.08       26.98       26.87       26.75    
        26.62       26.48       26.32       26.15       25.95       25.73       25.48       25.18       24.82       24.34    
  12    27.77       27.77       27.76       27.74       27.72       27.70       27.67       27.64       27.60       27.56    
        27.51       27.45       27.39       27.33       27.25       27.17       27.08       26.98       26.87       26.75    
        26.62       26.48       26.32       26.15       25.95       25.73       25.48       25.18       24.82       24.34    
  13    27.77       27.77       27.76       27.74       27.72       27.70       27.67       27.64       27.60       27.56    
        27.51       27.45       27.39       27.33       27.25       27.17       27.08       26.98       26.87       26.75    
        26.62       26.48       26.32       26.15       25.95       25.73       25.48       25.18       24.82       24.34    
  14    27.77       27.77       27.76       27.74       27.72       27.70       27.67       27.64       27.60       27.56    
        27.51       27.45       27.39       27.33       27.25       27.17       27.08       26.98       26.87       26.75    
        26.62       26.48       26.32       26.15       25.95       25.73       25.48       25.18       24.82       24.34    
  15    27.77       27.77       27.76       27.74       27.72       27.70       27.67       27.64       27.60       27.56    
        27.51       27.45       27.39       27.33       27.25       27.17       27.08       26.98       26.87       26.75    
        26.62       26.48       26.32       26.15       25.95       25.73       25.48       25.18       24.82       24.34    
  16    27.77       27.77       27.76       27.74       27.72       27.70       27.67       27.64       27.60       27.56    
        27.51       27.45       27.39       27.33       27.25       27.17       27.08       26.98       26.87       26.75    
        26.62       26.48       26.32       26.15       25.95       25.73       25.48       25.18       24.82       24.34    
  17    27.77       27.77       27.76       27.74       27.72       27.70       27.67       27.64       27.60       27.56    
        27.51       27.45       27.39       27.33       27.25       27.17       27.08       26.98       26.87       26.75    
        26.62       26.48       26.32       26.15       25.95       25.73       25.48       25.18       24.82       24.34    
  18    27.77       27.77       27.76       27.74       27.72       27.70       27.67       27.64       27.60       27.56    
        27.51       27.45       27.39       27.33       27.25       27.17       27.08       26.98       26.87       26.75    
        26.62       26.48       26.32       26.15       25.95       25.73       25.48       25.18       24.82       24.34    
  19    27.77       27.77       27.76       27.74       27.72       27.70       27.67       27.64       27.60       27.56    
        27.51       27.45       27.39       27.33       27.25       27.17       27.08       26.98       26.87       26.75    
        26.62       26.48       26.32       26.15       25.95       25.73       25.48       25.18       24.82       24.34    
  20    27.77       27.77       27.76       27.74       27.72       27.70       27.67       27.64       27.60       27.56    
        27.51       27.45       27.39       27.33       27.25       27.17       27.08       26.98       26.87       26.75    
        26.62       26.48       26.32       26.15       25.95       25.73       25.48       25.18       24.82       24.34    
  21    27.77       27.77       27.76       27.74       27.72       27.70       27.67       27.64       27.60       27.56    
        27.51       27.45       27.39       27.33       27.25       27.17       27.08       26.98       26.87       26.75    
        26.62       26.48       26.32       26.15       25.95       25.73       25.48       25.18       24.82       24.34    
  22    27.77       27.77       27.76       27.74       27.72       27.70       27.67       27.64       27.60       27.56    
        27.51       27.45       27.39       27.33       27.25       27.17       27.08       26.98       26.87       26.75    
        26.62       26.48       26.32       26.15       25.95       25.73       25.48       25.18       24.82       24.34    
  23    27.77       27.77       27.76       27.74       27.72       27.70       27.67       27.64       27.60       27.56    
        27.51       27.45       27.39       27.33       27.25       27.17       27.08       26.98       26.87       26.75    
        26.62       26.48       26.32       26.15       25.95       25.73       25.48       25.18       24.82       24.34    
  24    27.77       27.77       27.76       27.74       27.72       27.70       27.67       27.64       27.60       27.56    
        27.51       27.45       27.39       27.33       27.25       27.17       27.08       26.98       26.87       26.75    
        26.62       26.48       26.32       26.15       25.95       25.73       25.48       25.18       24.82       24.34    
  25    27.77       27.77       27.76       27.74       27.72       27.70       27.67       27.64       27.60       27.56    
        27.51       27.45       27.39       27.33       27.25       27.17       27.08       26.98       26.87       26.75    
        26.62       26.48       26.32       26.15       25.95       25.73       25.48       25.18       24.82       24.34    
  26    27.77       27.77       27.76       27.74       27.72       27.70       27.67       27.64       27.60       27.56    
        27.51       27.45       27.39       27.33       27.25       27.17       27.08       26.98       26.87       26.75    
        26.62       26.48       26.32       26.15       25.95       25.73       25.48       25.18       24.82       24.34    
  27    27.77       27.77       27.76       27.74       27.72       27.70       27.67       27.64       27.60       27.56    
        27.51       27.45       27.39       27.33       27.25       27.17       27.08       26.98       26.87       26.75    
        26.62       26.48       26.32       26.15       25.95       25.73       25.48       25.18       24.82       24.34    
  28    27.77       27.77       27.76       27.74       27.72       27.70       27.67       27.64       27.60       27.56    
        27.51       27.45       27.39       27.33       27.25       27.17       27.08       26.98       26.87       26.75    
        26.62       26.48       26.32       26.15       25.95       25.73       25.48       25.18       24.82       24.34    
  29    27.77       27.77       27.76       27.74       27.72       27.70       27.67       27.64       27.60       27.56    
        27.51       27.45       27.39       27.33       27.25       27.17       27.08       26.98       26.87       26.75    
        26.62       26.48       26.32       26.15       25.95       25.73       25.48       25.18       24.82       24.34    
  30    27.77       27.77       27.76       27.74       27.72       27.70       27.67       27.64       27.60       27.56    
        27.51       27.45       27.39       27.33       27.25       27.17       27.08       26.98       26.87       26.75    
        26.62       26.48       26.32       26.15       25.95       25.73       25.48       25.18       24.82       24.34    

 HEAD WILL BE SAVED ON UNIT 1017 AT END OF TIME STEP   10, STRESS PERIOD   10


  VOLUME BUDGET FOR ENTIRE MODEL AT END OF TIME STEP   10, STRESS PERIOD  10
  ---------------------------------------------------------------------------------------------------

     CUMULATIVE VOLUME      L**3       RATES FOR THIS TIME STEP      L**3/T          PACKAGE NAME    
     ------------------                 ------------------------                     ----------------

           IN:                                      IN:
           ---                                      ---
              STO-SS =          22.8540                STO-SS =       1.6642E-02     STORAGE         
              STO-SY =       14611.2852                STO-SY =          11.3998     STORAGE         
                 RCH =       39209.6055                   RCH =         190.6849     RCHA            
                 CHD =        1052.4133                   CHD =           0.0000     CHD             

            TOTAL IN =       54896.1580              TOTAL IN =         202.1013

          OUT:                                     OUT:
          ----                                     ----
              STO-SS =           9.6262                STO-SS =       1.4961E-02     STORAGE         
              STO-SY =        6344.5075                STO-SY =           9.2535     STORAGE         
                 RCH =           0.0000                   RCH =           0.0000     RCHA            
                 CHD =       48541.5534                   CHD =         192.8286     CHD             

           TOTAL OUT =       54895.6871             TOTAL OUT =         202.0971

            IN - OUT =           0.4709              IN - OUT =       4.2275E-03

 PERCENT DISCREPANCY =           0.00     PERCENT DISCREPANCY =           0.00




         TIME SUMMARY AT END OF TIME STEP   10 IN STRESS PERIOD   10
                    SECONDS     MINUTES      HOURS       DAYS        YEARS
                    -----------------------------------------------------------
   TIME STEP LENGTH 2.59200E+05  4320.0      72.000      3.0000     8.21355E-03
 STRESS PERIOD TIME 2.59200E+06  43200.      720.00      30.000     8.21355E-02
         TOTAL TIME 2.34144E+07 3.90240E+05  6504.0      271.00     0.74196    

 OUTPUT CONTROL FOR STRESS PERIOD 11 IS REPEATED USING SETTINGS FROM A PREVIOUS STRESS PERIOD.


 STRESS PERIOD 11 IS TRANSIENT


                 RECHARGE =  0.2465750E-02
 UBDSV1 SAVING           STO-SS ON UNIT   1016 AT TIME STEP      1, STRESS PERIOD     11
 UBDSV1 SAVING           STO-SY ON UNIT   1016 AT TIME STEP      1, STRESS PERIOD     11
 UBDSV1 SAVING     FLOW-JA-FACE ON UNIT   1016 AT TIME STEP      1, STRESS PERIOD     11
 UBDSV06 SAVING              RCH IN MODEL TEST_TRANS       PACKAGE TEST_TRANS      CONNECTED TO MODEL TEST_TRANS       PACKAGE RCHA             ON UNIT   1016 AT TIME STEP      1, STRESS PERIOD     11
 UBDSV06 SAVING              CHD IN MODEL TEST_TRANS       PACKAGE TEST_TRANS      CONNECTED TO MODEL TEST_TRANS       PACKAGE CHD              ON UNIT   1016 AT TIME STEP      1, STRESS PERIOD     11
1
  HEAD IN LAYER   1 AT END OF TIME STEP   1 IN STRESS PERIOD   11
  ---------------------------------------------------------------------------

            1           2           3           4           5           6           7           8           9          10
           11          12          13          14          15          16          17          18          19          20
           21          22          23          24          25          26          27          28          29          30
 ........................................................................................................................
   1    27.78       27.77       27.77       27.75       27.73       27.71       27.68       27.65       27.61       27.56    
        27.52       27.46       27.40       27.33       27.26       27.17       27.08       26.98       26.87       26.75    
        26.62       26.48       26.32       26.14       25.95       25.72       25.47       25.16       24.79       24.24    
   2    27.78       27.77       27.77       27.75       27.73       27.71       27.68       27.65       27.61       27.56    
        27.52       27.46       27.40       27.33       27.26       27.17       27.08       26.98       26.87       26.75    
        26.62       26.48       26.32       26.14       25.95       25.72       25.47       25.16       24.79       24.24    
   3    27.78       27.77       27.77       27.75       27.73       27.71       27.68       27.65       27.61       27.56    
        27.52       27.46       27.40       27.33       27.26       27.17       27.08       26.98       26.87       26.75    
        26.62       26.48       26.32       26.14       25.95       25.72       25.47       25.16       24.79       24.24    
   4    27.78       27.77       27.77       27.75       27.73       27.71       27.68       27.65       27.61       27.56    
        27.52       27.46       27.40       27.33       27.26       27.17       27.08       26.98       26.87       26.75    
        26.62       26.48       26.32       26.14       25.95       25.72       25.47       25.16       24.79       24.24    
   5    27.78       27.77       27.77       27.75       27.73       27.71       27.68       27.65       27.61       27.56    
        27.52       27.46       27.40       27.33       27.26       27.17       27.08       26.98       26.87       26.75    
        26.62       26.48       26.32       26.14       25.95       25.72       25.47       25.16       24.79       24.24    
   6    27.78       27.77       27.77       27.75       27.73       27.71       27.68       27.65       27.61       27.56    
        27.52       27.46       27.40       27.33       27.26       27.17       27.08       26.98       26.87       26.75    
        26.62       26.48       26.32       26.14       25.95       25.72       25.47       25.16       24.79       24.24    
   7    27.78       27.77       27.77       27.75       27.73       27.71       27.68       27.65       27.61       27.56    
        27.52       27.46       27.40       27.33       27.26       27.17       27.08       26.98       26.87       26.75    
        26.62       26.48       26.32       26.14       25.95       25.72       25.47       25.16       24.79       24.24    
   8    27.78       27.77       27.77       27.75       27.73       27.71       27.68       27.65       27.61       27.56    
        27.52       27.46       27.40       27.33       27.26       27.17       27.08       26.98       26.87       26.75    
        26.62       26.48       26.32       26.14       25.95       25.72       25.47       25.16       24.79       24.24    
   9    27.78       27.77       27.77       27.75       27.73       27.71       27.68       27.65       27.61       27.56    
        27.52       27.46       27.40       27.33       27.26       27.17       27.08       26.98       26.87       26.75    
        26.62       26.48       26.32       26.14       25.95       25.72       25.47       25.16       24.79       24.24    
  10    27.78       27.77       27.77       27.75       27.73       27.71       27.68       27.65       27.61       27.56    
        27.52       27.46       27.40       27.33       27.26       27.17       27.08       26.98       26.87       26.75    
        26.62       26.48       26.32       26.14       25.95       25.72       25.47       25.16       24.79       24.24    
  11    27.78       27.77       27.77       27.75       27.73       27.71       27.68       27.65       27.61       27.56    
        27.52       27.46       27.40       27.33       27.26       27.17       27.08       26.98       26.87       26.75    
        26.62       26.48       26.32       26.14       25.95       25.72       25.47       25.16       24.79       24.24    
  12    27.78       27.77       27.77       27.75       27.73       27.71       27.68       27.65       27.61       27.56    
        27.52       27.46       27.40       27.33       27.26       27.17       27.08       26.98       26.87       26.75    
        26.62       26.48       26.32       26.14       25.95       25.72       25.47       25.16       24.79       24.24    
  13    27.78       27.77       27.77       27.75       27.73       27.71       27.68       27.65       27.61       27.56    
        27.52       27.46       27.40       27.33       27.26       27.17       27.08       26.98       26.87       26.75    
        26.62       26.48       26.32       26.14       25.95       25.72       25.47       25.16       24.79       24.24    
  14    27.78       27.77       27.77       27.75       27.73       27.71       27.68       27.65       27.61       27.56    
        27.52       27.46       27.40       27.33       27.26       27.17       27.08       26.98       26.87       26.75    
        26.62       26.48       26.32       26.14       25.95       25.72       25.47       25.16       24.79       24.24    
  15    27.78       27.77       27.77       27.75       27.73       27.71       27.68       27.65       27.61       27.56    
        27.52       27.46       27.40       27.33       27.26       27.17       27.08       26.98       26.87       26.75    
        26.62       26.48       26.32       26.14       25.95       25.72       25.47       25.16       24.79       24.24    
  16    27.78       27.77       27.77       27.75       27.73       27.71       27.68       27.65       27.61       27.56    
        27.52       27.46       27.40       27.33       27.26       27.17       27.08       26.98       26.87       26.75    
        26.62       26.48       26.32       26.14       25.95       25.72       25.47       25.16       24.79       24.24    
  17    27.78       27.77       27.77       27.75       27.73       27.71       27.68       27.65       27.61       27.56    
        27.52       27.46       27.40       27.33       27.26       27.17       27.08       26.98       26.87       26.75    
        26.62       26.48       26.32       26.14       25.95       25.72       25.47       25.16       24.79       24.24    
  18    27.78       27.77       27.77       27.75       27.73       27.71       27.68       27.65       27.61       27.56    
        27.52       27.46       27.40       27.33       27.26       27.17       27.08       26.98       26.87       26.75    
        26.62       26.48       26.32       26.14       25.95       25.72       25.47       25.16       24.79       24.24    
  19    27.78       27.77       27.77       27.75       27.73       27.71       27.68       27.65       27.61       27.56    
        27.52       27.46       27.40       27.33       27.26       27.17       27.08       26.98       26.87       26.75    
        26.62       26.48       26.32       26.14       25.95       25.72       25.47       25.16       24.79       24.24    
  20    27.78       27.77       27.77       27.75       27.73       27.71       27.68       27.65       27.61       27.56    
        27.52       27.46       27.40       27.33       27.26       27.17       27.08       26.98       26.87       26.75    
        26.62       26.48       26.32       26.14       25.95       25.72       25.47       25.16       24.79       24.24    
  21    27.78       27.77       27.77       27.75       27.73       27.71       27.68       27.65       27.61       27.56    
        27.52       27.46       27.40       27.33       27.26       27.17       27.08       26.98       26.87       26.75    
        26.62       26.48       26.32       26.14       25.95       25.72       25.47       25.16       24.79       24.24    
  22    27.78       27.77       27.77       27.75       27.73       27.71       27.68       27.65       27.61       27.56    
        27.52       27.46       27.40       27.33       27.26       27.17       27.08       26.98       26.87       26.75    
        26.62       26.48       26.32       26.14       25.95       25.72       25.47       25.16       24.79       24.24    
  23    27.78       27.77       27.77       27.75       27.73       27.71       27.68       27.65       27.61       27.56    
        27.52       27.46       27.40       27.33       27.26       27.17       27.08       26.98       26.87       26.75    
        26.62       26.48       26.32       26.14       25.95       25.72       25.47       25.16       24.79       24.24    
  24    27.78       27.77       27.77       27.75       27.73       27.71       27.68       27.65       27.61       27.56    
        27.52       27.46       27.40       27.33       27.26       27.17       27.08       26.98       26.87       26.75    
        26.62       26.48       26.32       26.14       25.95       25.72       25.47       25.16       24.79       24.24    
  25    27.78       27.77       27.77       27.75       27.73       27.71       27.68       27.65       27.61       27.56    
        27.52       27.46       27.40       27.33       27.26       27.17       27.08       26.98       26.87       26.75    
        26.62       26.48       26.32       26.14       25.95       25.72       25.47       25.16       24.79       24.24    
  26    27.78       27.77       27.77       27.75       27.73       27.71       27.68       27.65       27.61       27.56    
        27.52       27.46       27.40       27.33       27.26       27.17       27.08       26.98       26.87       26.75    
        26.62       26.48       26.32       26.14       25.95       25.72       25.47       25.16       24.79       24.24    
  27    27.78       27.77       27.77       27.75       27.73       27.71       27.68       27.65       27.61       27.56    
        27.52       27.46       27.40       27.33       27.26       27.17       27.08       26.98       26.87       26.75    
        26.62       26.48       26.32       26.14       25.95       25.72       25.47       25.16       24.79       24.24    
  28    27.78       27.77       27.77       27.75       27.73       27.71       27.68       27.65       27.61       27.56    
        27.52       27.46       27.40       27.33       27.26       27.17       27.08       26.98       26.87       26.75    
        26.62       26.48       26.32       26.14       25.95       25.72       25.47       25.16       24.79       24.24    
  29    27.78       27.77       27.77       27.75       27.73       27.71       27.68       27.65       27.61       27.56    
        27.52       27.46       27.40       27.33       27.26       27.17       27.08       26.98       26.87       26.75    
        26.62       26.48       26.32       26.14       25.95       25.72       25.47       25.16       24.79       24.24    
  30    27.78       27.77       27.77       27.75       27.73       27.71       27.68       27.65       27.61       27.56    
        27.52       27.46       27.40       27.33       27.26       27.17       27.08       26.98       26.87       26.75    
        26.62       26.48       26.32       26.14       25.95       25.72       25.47       25.16       24.79       24.24    

 HEAD WILL BE SAVED ON UNIT 1017 AT END OF TIME STEP    1, STRESS PERIOD   11



         TIME SUMMARY AT END OF TIME STEP    1 IN STRESS PERIOD   11
                    SECONDS     MINUTES      HOURS       DAYS        YEARS
                    -----------------------------------------------------------
   TIME STEP LENGTH 2.59200E+05  4320.0      72.000      3.0000     8.21355E-03
 STRESS PERIOD TIME 2.59200E+05  4320.0      72.000      3.0000     8.21355E-03
         TOTAL TIME 2.36736E+07 3.94560E+05  6576.0      274.00     0.75017    
 UBDSV1 SAVING           STO-SS ON UNIT   1016 AT TIME STEP      2, STRESS PERIOD     11
 UBDSV1 SAVING           STO-SY ON UNIT   1016 AT TIME STEP      2, STRESS PERIOD     11
 UBDSV1 SAVING     FLOW-JA-FACE ON UNIT   1016 AT TIME STEP      2, STRESS PERIOD     11
 UBDSV06 SAVING              RCH IN MODEL TEST_TRANS       PACKAGE TEST_TRANS      CONNECTED TO MODEL TEST_TRANS       PACKAGE RCHA             ON UNIT   1016 AT TIME STEP      2, STRESS PERIOD     11
 UBDSV06 SAVING              CHD IN MODEL TEST_TRANS       PACKAGE TEST_TRANS      CONNECTED TO MODEL TEST_TRANS       PACKAGE CHD              ON UNIT   1016 AT TIME STEP      2, STRESS PERIOD     11

 HEAD WILL BE SAVED ON UNIT 1017 AT END OF TIME STEP    2, STRESS PERIOD   11
 UBDSV1 SAVING           STO-SS ON UNIT   1016 AT TIME STEP      3, STRESS PERIOD     11
 UBDSV1 SAVING           STO-SY ON UNIT   1016 AT TIME STEP      3, STRESS PERIOD     11
 UBDSV1 SAVING     FLOW-JA-FACE ON UNIT   1016 AT TIME STEP      3, STRESS PERIOD     11
 UBDSV06 SAVING              RCH IN MODEL TEST_TRANS       PACKAGE TEST_TRANS      CONNECTED TO MODEL TEST_TRANS       PACKAGE RCHA             ON UNIT   1016 AT TIME STEP      3, STRESS PERIOD     11
 UBDSV06 SAVING              CHD IN MODEL TEST_TRANS       PACKAGE TEST_TRANS      CONNECTED TO MODEL TEST_TRANS       PACKAGE CHD              ON UNIT   1016 AT TIME STEP      3, STRESS PERIOD     11

 HEAD WILL BE SAVED ON UNIT 1017 AT END OF TIME STEP    3, STRESS PERIOD   11
 UBDSV1 SAVING           STO-SS ON UNIT   1016 AT TIME STEP      4, STRESS PERIOD     11
 UBDSV1 SAVING           STO-SY ON UNIT   1016 AT TIME STEP      4, STRESS PERIOD     11
 UBDSV1 SAVING     FLOW-JA-FACE ON UNIT   1016 AT TIME STEP      4, STRESS PERIOD     11
 UBDSV06 SAVING              RCH IN MODEL TEST_TRANS       PACKAGE TEST_TRANS      CONNECTED TO MODEL TEST_TRANS       PACKAGE RCHA             ON UNIT   1016 AT TIME STEP      4, STRESS PERIOD     11
 UBDSV06 SAVING              CHD IN MODEL TEST_TRANS       PACKAGE TEST_TRANS      CONNECTED TO MODEL TEST_TRANS       PACKAGE CHD              ON UNIT   1016 AT TIME STEP      4, STRESS PERIOD     11

 HEAD WILL BE SAVED ON UNIT 1017 AT END OF TIME STEP    4, STRESS PERIOD   11
 UBDSV1 SAVING           STO-SS ON UNIT   1016 AT TIME STEP      5, STRESS PERIOD     11
 UBDSV1 SAVING           STO-SY ON UNIT   1016 AT TIME STEP      5, STRESS PERIOD     11
 UBDSV1 SAVING     FLOW-JA-FACE ON UNIT   1016 AT TIME STEP      5, STRESS PERIOD     11
 UBDSV06 SAVING              RCH IN MODEL TEST_TRANS       PACKAGE TEST_TRANS      CONNECTED TO MODEL TEST_TRANS       PACKAGE RCHA             ON UNIT   1016 AT TIME STEP      5, STRESS PERIOD     11
 UBDSV06 SAVING              CHD IN MODEL TEST_TRANS       PACKAGE TEST_TRANS      CONNECTED TO MODEL TEST_TRANS       PACKAGE CHD              ON UNIT   1016 AT TIME STEP      5, STRESS PERIOD     11

 HEAD WILL BE SAVED ON UNIT 1017 AT END OF TIME STEP    5, STRESS PERIOD   11
 UBDSV1 SAVING           STO-SS ON UNIT   1016 AT TIME STEP      6, STRESS PERIOD     11
 UBDSV1 SAVING           STO-SY ON UNIT   1016 AT TIME STEP      6, STRESS PERIOD     11
 UBDSV1 SAVING     FLOW-JA-FACE ON UNIT   1016 AT TIME STEP      6, STRESS PERIOD     11
 UBDSV06 SAVING              RCH IN MODEL TEST_TRANS       PACKAGE TEST_TRANS      CONNECTED TO MODEL TEST_TRANS       PACKAGE RCHA             ON UNIT   1016 AT TIME STEP      6, STRESS PERIOD     11
 UBDSV06 SAVING              CHD IN MODEL TEST_TRANS       PACKAGE TEST_TRANS      CONNECTED TO MODEL TEST_TRANS       PACKAGE CHD              ON UNIT   1016 AT TIME STEP      6, STRESS PERIOD     11

 HEAD WILL BE SAVED ON UNIT 1017 AT END OF TIME STEP    6, STRESS PERIOD   11
 UBDSV1 SAVING           STO-SS ON UNIT   1016 AT TIME STEP      7, STRESS PERIOD     11
 UBDSV1 SAVING           STO-SY ON UNIT   1016 AT TIME STEP      7, STRESS PERIOD     11
 UBDSV1 SAVING     FLOW-JA-FACE ON UNIT   1016 AT TIME STEP      7, STRESS PERIOD     11
 UBDSV06 SAVING              RCH IN MODEL TEST_TRANS       PACKAGE TEST_TRANS      CONNECTED TO MODEL TEST_TRANS       PACKAGE RCHA             ON UNIT   1016 AT TIME STEP      7, STRESS PERIOD     11
 UBDSV06 SAVING              CHD IN MODEL TEST_TRANS       PACKAGE TEST_TRANS      CONNECTED TO MODEL TEST_TRANS       PACKAGE CHD              ON UNIT   1016 AT TIME STEP      7, STRESS PERIOD     11

 HEAD WILL BE SAVED ON UNIT 1017 AT END OF TIME STEP    7, STRESS PERIOD   11
 UBDSV1 SAVING           STO-SS ON UNIT   1016 AT TIME STEP      8, STRESS PERIOD     11
 UBDSV1 SAVING           STO-SY ON UNIT   1016 AT TIME STEP      8, STRESS PERIOD     11
 UBDSV1 SAVING     FLOW-JA-FACE ON UNIT   1016 AT TIME STEP      8, STRESS PERIOD     11
 UBDSV06 SAVING              RCH IN MODEL TEST_TRANS       PACKAGE TEST_TRANS      CONNECTED TO MODEL TEST_TRANS       PACKAGE RCHA             ON UNIT   1016 AT TIME STEP      8, STRESS PERIOD     11
 UBDSV06 SAVING              CHD IN MODEL TEST_TRANS       PACKAGE TEST_TRANS      CONNECTED TO MODEL TEST_TRANS       PACKAGE CHD              ON UNIT   1016 AT TIME STEP      8, STRESS PERIOD     11

 HEAD WILL BE SAVED ON UNIT 1017 AT END OF TIME STEP    8, STRESS PERIOD   11
 UBDSV1 SAVING           STO-SS ON UNIT   1016 AT TIME STEP      9, STRESS PERIOD     11
 UBDSV1 SAVING           STO-SY ON UNIT   1016 AT TIME STEP      9, STRESS PERIOD     11
 UBDSV1 SAVING     FLOW-JA-FACE ON UNIT   1016 AT TIME STEP      9, STRESS PERIOD     11
 UBDSV06 SAVING              RCH IN MODEL TEST_TRANS       PACKAGE TEST_TRANS      CONNECTED TO MODEL TEST_TRANS       PACKAGE RCHA             ON UNIT   1016 AT TIME STEP      9, STRESS PERIOD     11
 UBDSV06 SAVING              CHD IN MODEL TEST_TRANS       PACKAGE TEST_TRANS      CONNECTED TO MODEL TEST_TRANS       PACKAGE CHD              ON UNIT   1016 AT TIME STEP      9, STRESS PERIOD     11

 HEAD WILL BE SAVED ON UNIT 1017 AT END OF TIME STEP    9, STRESS PERIOD   11
 UBDSV1 SAVING           STO-SS ON UNIT   1016 AT TIME STEP     10, STRESS PERIOD     11
 UBDSV1 SAVING           STO-SY ON UNIT   1016 AT TIME STEP     10, STRESS PERIOD     11
 UBDSV1 SAVING     FLOW-JA-FACE ON UNIT   1016 AT TIME STEP     10, STRESS PERIOD     11
 UBDSV06 SAVING              RCH IN MODEL TEST_TRANS       PACKAGE TEST_TRANS      CONNECTED TO MODEL TEST_TRANS       PACKAGE RCHA             ON UNIT   1016 AT TIME STEP     10, STRESS PERIOD     11
 UBDSV06 SAVING              CHD IN MODEL TEST_TRANS       PACKAGE TEST_TRANS      CONNECTED TO MODEL TEST_TRANS       PACKAGE CHD              ON UNIT   1016 AT TIME STEP     10, STRESS PERIOD     11
1
  HEAD IN LAYER   1 AT END OF TIME STEP  10 IN STRESS PERIOD   11
  ---------------------------------------------------------------------------

            1           2           3           4           5           6           7           8           9          10
           11          12          13          14          15          16          17          18          19          20
           21          22          23          24          25          26          27          28          29          30
 ........................................................................................................................
   1    27.84       27.84       27.83       27.81       27.79       27.77       27.74       27.70       27.66       27.62    
        27.56       27.50       27.44       27.37       27.29       27.20       27.11       27.00       26.89       26.76    
        26.63       26.48       26.32       26.13       25.93       25.70       25.44       25.14       24.76       24.24    
   2    27.84       27.84       27.83       27.81       27.79       27.77       27.74       27.70       27.66       27.62    
        27.56       27.50       27.44       27.37       27.29       27.20       27.11       27.00       26.89       26.76    
        26.63       26.48       26.32       26.14       25.93       25.70       25.44       25.14       24.76       24.24    
   3    27.84       27.84       27.83       27.81       27.79       27.77       27.74       27.70       27.66       27.62    
        27.56       27.50       27.44       27.37       27.29       27.20       27.11       27.00       26.89       26.76    
        26.63       26.48       26.32       26.14       25.93       25.70       25.44       25.14       24.76       24.24    
   4    27.84       27.84       27.83       27.81       27.79       27.77       27.74       27.70       27.66       27.62    
        27.56       27.50       27.44       27.37       27.29       27.20       27.11       27.00       26.89       26.76    
        26.63       26.48       26.32       26.14       25.93       25.70       25.44       25.14       24.76       24.24    
   5    27.84       27.84       27.83       27.81       27.79       27.77       27.74       27.70       27.66       27.62    
        27.56       27.50       27.44       27.37       27.29       27.20       27.11       27.00       26.89       26.76    
        26.63       26.48       26.32       26.14       25.93       25.70       25.44       25.14       24.76       24.24    
   6    27.84       27.84       27.83       27.81       27.79       27.77       27.74       27.70       27.66       27.62    
        27.56       27.50       27.44       27.37       27.29       27.20       27.11       27.00       26.89       26.76    
        26.63       26.48       26.32       26.14       25.93       25.70       25.44       25.14       24.76       24.24    
   7    27.84       27.84       27.83       27.81       27.79       27.77       27.74       27.70       27.66       27.62    
        27.56       27.50       27.44       27.37       27.29       27.20       27.11       27.00       26.89       26.76    
        26.63       26.48       26.32       26.14       25.93       25.70       25.44       25.14       24.76       24.24    
   8    27.84       27.84       27.83       27.81       27.79       27.77       27.74       27.70       27.66       27.62    
        27.56       27.50       27.44       27.37       27.29       27.20       27.11       27.00       26.89       26.76    
        26.63       26.48       26.32       26.14       25.93       25.70       25.44       25.14       24.76       24.24    
   9    27.84       27.84       27.83       27.81       27.79       27.77       27.74       27.70       27.66       27.62    
        27.56       27.50       27.44       27.37       27.29       27.20       27.11       27.00       26.89       26.76    
        26.63       26.48       26.32       26.14       25.93       25.70       25.44       25.14       24.76       24.24    
  10    27.84       27.84       27.83       27.81       27.79       27.77       27.74       27.70       27.66       27.62    
        27.56       27.50       27.44       27.37       27.29       27.20       27.11       27.00       26.89       26.76    
        26.63       26.48       26.32       26.14       25.93       25.70       25.44       25.14       24.76       24.24    
  11    27.84       27.84       27.83       27.81       27.79       27.77       27.74       27.70       27.66       27.62    
        27.56       27.50       27.44       27.37       27.29       27.20       27.11       27.00       26.89       26.76    
        26.63       26.48       26.32       26.14       25.93       25.70       25.44       25.14       24.76       24.24    
  12    27.84       27.84       27.83       27.81       27.79       27.77       27.74       27.70       27.66       27.62    
        27.56       27.50       27.44       27.37       27.29       27.20       27.11       27.00       26.89       26.76    
        26.63       26.48       26.32       26.14       25.93       25.70       25.44       25.14       24.76       24.24    
  13    27.84       27.84       27.83       27.81       27.79       27.77       27.74       27.70       27.66       27.62    
        27.56       27.50       27.44       27.37       27.29       27.20       27.11       27.00       26.89       26.76    
        26.63       26.48       26.32       26.14       25.93       25.70       25.44       25.14       24.76       24.24    
  14    27.84       27.84       27.83       27.81       27.79       27.77       27.74       27.70       27.66       27.62    
        27.56       27.50       27.44       27.37       27.29       27.20       27.11       27.00       26.89       26.76    
        26.63       26.48       26.32       26.14       25.93       25.70       25.44       25.14       24.76       24.24    
  15    27.84       27.84       27.83       27.81       27.79       27.77       27.74       27.70       27.66       27.62    
        27.56       27.50       27.44       27.37       27.29       27.20       27.11       27.00       26.89       26.76    
        26.63       26.48       26.32       26.14       25.93       25.70       25.44       25.14       24.76       24.24    
  16    27.84       27.84       27.83       27.81       27.79       27.77       27.74       27.70       27.66       27.62    
        27.56       27.50       27.44       27.37       27.29       27.20       27.11       27.00       26.89       26.76    
        26.63       26.48       26.32       26.14       25.93       25.70       25.44       25.14       24.76       24.24    
  17    27.84       27.84       27.83       27.81       27.79       27.77       27.74       27.70       27.66       27.62    
        27.56       27.50       27.44       27.37       27.29       27.20       27.11       27.00       26.89       26.76    
        26.63       26.48       26.32       26.14       25.93       25.70       25.44       25.14       24.76       24.24    
  18    27.84       27.84       27.83       27.81       27.79       27.77       27.74       27.70       27.66       27.62    
        27.56       27.50       27.44       27.37       27.29       27.20       27.11       27.00       26.89       26.76    
        26.63       26.48       26.32       26.14       25.93       25.70       25.44       25.14       24.76       24.24    
  19    27.84       27.84       27.83       27.81       27.79       27.77       27.74       27.70       27.66       27.62    
        27.56       27.50       27.44       27.37       27.29       27.20       27.11       27.00       26.89       26.76    
        26.63       26.48       26.32       26.14       25.93       25.70       25.44       25.14       24.76       24.24    
  20    27.84       27.84       27.83       27.81       27.79       27.77       27.74       27.70       27.66       27.62    
        27.56       27.50       27.44       27.37       27.29       27.20       27.11       27.00       26.89       26.76    
        26.63       26.48       26.32       26.14       25.93       25.70       25.44       25.14       24.76       24.24    
  21    27.84       27.84       27.83       27.81       27.79       27.77       27.74       27.70       27.66       27.62    
        27.56       27.50       27.44       27.37       27.29       27.20       27.11       27.00       26.89       26.76    
        26.63       26.48       26.32       26.14       25.93       25.70       25.44       25.14       24.76       24.24    
  22    27.84       27.84       27.83       27.81       27.79       27.77       27.74       27.70       27.66       27.62    
        27.56       27.50       27.44       27.37       27.29       27.20       27.11       27.00       26.89       26.76    
        26.63       26.48       26.32       26.14       25.93       25.70       25.44       25.14       24.76       24.24    
  23    27.84       27.84       27.83       27.81       27.79       27.77       27.74       27.70       27.66       27.62    
        27.56       27.50       27.44       27.37       27.29       27.20       27.11       27.00       26.89       26.76    
        26.63       26.48       26.32       26.14       25.93       25.70       25.44       25.14       24.76       24.24    
  24    27.84       27.84       27.83       27.81       27.79       27.77       27.74       27.70       27.66       27.62    
        27.56       27.50       27.44       27.37       27.29       27.20       27.11       27.00       26.89       26.76    
        26.63       26.48       26.32       26.14       25.93       25.70       25.44       25.14       24.76       24.24    
  25    27.84       27.84       27.83       27.81       27.79       27.77       27.74       27.70       27.66       27.62    
        27.56       27.50       27.44       27.37       27.29       27.20       27.11       27.00       26.89       26.76    
        26.63       26.48       26.32       26.13       25.93       25.70       25.44       25.14       24.76       24.24    
  26    27.84       27.84       27.83       27.81       27.79       27.77       27.74       27.70       27.66       27.62    
        27.56       27.50       27.44       27.37       27.29       27.20       27.11       27.00       26.89       26.76    
        26.63       26.48       26.32       26.13       25.93       25.70       25.44       25.14       24.76       24.24    
  27    27.84       27.84       27.83       27.81       27.79       27.77       27.74       27.70       27.66       27.62    
        27.56       27.50       27.44       27.37       27.29       27.20       27.11       27.00       26.89       26.76    
        26.63       26.48       26.32       26.13       25.93       25.70       25.44       25.14       24.76       24.24    
  28    27.84       27.84       27.83       27.81       27.79       27.77       27.74       27.70       27.66       27.62    
        27.56       27.50       27.44       27.37       27.29       27.20       27.11       27.00       26.89       26.76    
        26.63       26.48       26.32       26.13       25.93       25.70       25.44       25.14       24.76       24.24    
  29    27.84       27.84       27.83       27.81       27.79       27.77       27.74       27.70       27.66       27.62    
        27.56       27.50       27.44       27.37       27.29       27.20       27.11       27.00       26.89       26.76    
        26.63       26.48       26.32       26.13       25.93       25.70       25.44       25.14       24.76       24.24    
  30    27.84       27.84       27.83       27.81       27.79       27.77       27.74       27.70       27.66       27.62    
        27.56       27.50       27.44       27.37       27.29       27.20       27.11       27.00       26.89       26.76    
        26.63       26.48       26.32       26.14       25.93       25.70       25.44       25.14       24.76       24.24    

 HEAD WILL BE SAVED ON UNIT 1017 AT END OF TIME STEP   10, STRESS PERIOD   11


  VOLUME BUDGET FOR ENTIRE MODEL AT END OF TIME STEP   10, STRESS PERIOD  11
  ---------------------------------------------------------------------------------------------------

     CUMULATIVE VOLUME      L**3       RATES FOR THIS TIME STEP      L**3/T          PACKAGE NAME    
     ------------------                 ------------------------                     ----------------

           IN:                                      IN:
           ---                                      ---
              STO-SS =          23.0186                STO-SS =       7.8414E-05     STORAGE         
              STO-SY =       14729.8810                STO-SY =       5.7836E-02     STORAGE         
                 RCH =       45645.2130                   RCH =         214.5203     RCHA            
                 CHD =        1052.4133                   CHD =           0.0000     CHD             

            TOTAL IN =       61450.5258              TOTAL IN =         214.5782

          OUT:                                     OUT:
          ----                                     ----
              STO-SS =          10.6049                STO-SS =       2.9994E-02     STORAGE         
              STO-SY =        6953.3136                STO-SY =          18.6992     STORAGE         
                 RCH =           0.0000                   RCH =           0.0000     RCHA            
                 CHD =       54486.1123                   CHD =         195.8528     CHD             

           TOTAL OUT =       61450.0307             TOTAL OUT =         214.5820

            IN - OUT =           0.4951              IN - OUT =      -3.8099E-03

 PERCENT DISCREPANCY =           0.00     PERCENT DISCREPANCY =          -0.00




         TIME SUMMARY AT END OF TIME STEP   10 IN STRESS PERIOD   11
                    SECONDS     MINUTES      HOURS       DAYS        YEARS
                    -----------------------------------------------------------
   TIME STEP LENGTH 2.59200E+05  4320.0      72.000      3.0000     8.21355E-03
 STRESS PERIOD TIME 2.59200E+06  43200.      720.00      30.000     8.21355E-02
         TOTAL TIME 2.60064E+07 4.33440E+05  7224.0      301.00     0.82409    

 OUTPUT CONTROL FOR STRESS PERIOD 12 IS REPEATED USING SETTINGS FROM A PREVIOUS STRESS PERIOD.


 STRESS PERIOD 12 IS TRANSIENT


                 RECHARGE =  0.2739730E-02
 UBDSV1 SAVING           STO-SS ON UNIT   1016 AT TIME STEP      1, STRESS PERIOD     12
 UBDSV1 SAVING           STO-SY ON UNIT   1016 AT TIME STEP      1, STRESS PERIOD     12
 UBDSV1 SAVING     FLOW-JA-FACE ON UNIT   1016 AT TIME STEP      1, STRESS PERIOD     12
 UBDSV06 SAVING              RCH IN MODEL TEST_TRANS       PACKAGE TEST_TRANS      CONNECTED TO MODEL TEST_TRANS       PACKAGE RCHA             ON UNIT   1016 AT TIME STEP      1, STRESS PERIOD     12
 UBDSV06 SAVING              CHD IN MODEL TEST_TRANS       PACKAGE TEST_TRANS      CONNECTED TO MODEL TEST_TRANS       PACKAGE CHD              ON UNIT   1016 AT TIME STEP      1, STRESS PERIOD     12
1
  HEAD IN LAYER   1 AT END OF TIME STEP   1 IN STRESS PERIOD   12
  ---------------------------------------------------------------------------

            1           2           3           4           5           6           7           8           9          10
           11          12          13          14          15          16          17          18          19          20
           21          22          23          24          25          26          27          28          29          30
 ........................................................................................................................
   1    27.85       27.85       27.84       27.82       27.80       27.78       27.75       27.71       27.67       27.62    
        27.57       27.51       27.45       27.37       27.30       27.21       27.11       27.01       26.89       26.77    
        26.63       26.48       26.32       26.14       25.93       25.70       25.43       25.12       24.71       24.06    
   2    27.85       27.85       27.84       27.82       27.80       27.78       27.75       27.71       27.67       27.62    
        27.57       27.51       27.45       27.37       27.30       27.21       27.11       27.01       26.89       26.77    
        26.63       26.48       26.32       26.14       25.93       25.70       25.43       25.12       24.71       24.06    
   3    27.85       27.85       27.84       27.82       27.80       27.78       27.75       27.71       27.67       27.62    
        27.57       27.51       27.45       27.37       27.30       27.21       27.11       27.01       26.89       26.77    
        26.63       26.48       26.32       26.14       25.93       25.70       25.43       25.12       24.71       24.06    
   4    27.85       27.85       27.84       27.82       27.80       27.78       27.75       27.71       27.67       27.62    
        27.57       27.51       27.45       27.37       27.30       27.21       27.11       27.01       26.89       26.77    
        26.63       26.48       26.32       26.14       25.93       25.70       25.43       25.12       24.71       24.06    
   5    27.85       27.85       27.84       27.82       27.80       27.78       27.75       27.71       27.67       27.62    
        27.57       27.51       27.45       27.37       27.30       27.21       27.11       27.01       26.89       26.77    
        26.63       26.48       26.32       26.14       25.93       25.70       25.43       25.12       24.71       24.06    
   6    27.85       27.85       27.84       27.82       27.80       27.78       27.75       27.71       27.67       27.62    
        27.57       27.51       27.45       27.37       27.30       27.21       27.11       27.01       26.89       26.77    
        26.63       26.48       26.32       26.14       25.93       25.70       25.43       25.12       24.71       24.06    
   7    27.85       27.85       27.84       27.82       27.80       27.78       27.75       27.71       27.67       27.62    
        27.57       27.51       27.45       27.37       27.30       27.21       27.11       27.01       26.89       26.77    
        26.63       26.48       26.32       26.14       25.93       25.70       25.43       25.12       24.71       24.06    
   8    27.85       27.85       27.84       27.82       27.80       27.78       27.75       27.71       27.67       27.62    
        27.57       27.51       27.45       27.37       27.30       27.21       27.11       27.01       26.89       26.77    
        26.63       26.48       26.32       26.14       25.93       25.70       25.43       25.12       24.71       24.06    
   9    27.85       27.85       27.84       27.82       27.80       27.78       27.75       27.71       27.67       27.62    
        27.57       27.51       27.45       27.37       27.30       27.21       27.11       27.01       26.89       26.77    
        26.63       26.48       26.32       26.14       25.93       25.70       25.43       25.12       24.71       24.06    
  10    27.85       27.85       27.84       27.82       27.80       27.78       27.75       27.71       27.67       27.62    
        27.57       27.51       27.45       27.37       27.30       27.21       27.11       27.01       26.89       26.77    
        26.63       26.48       26.32       26.14       25.93       25.70       25.43       25.12       24.71       24.06    
  11    27.85       27.85       27.84       27.82       27.80       27.78       27.75       27.71       27.67       27.62    
        27.57       27.51       27.45       27.37       27.30       27.21       27.11       27.01       26.89       26.77    
        26.63       26.48       26.32       26.14       25.93       25.70       25.43       25.12       24.71       24.06    
  12    27.85       27.85       27.84       27.82       27.80       27.78       27.75       27.71       27.67       27.62    
        27.57       27.51       27.45       27.37       27.30       27.21       27.11       27.01       26.89       26.77    
        26.63       26.48       26.32       26.14       25.93       25.70       25.43       25.12       24.71       24.06    
  13    27.85       27.85       27.84       27.82       27.80       27.78       27.75       27.71       27.67       27.62    
        27.57       27.51       27.45       27.37       27.30       27.21       27.11       27.01       26.89       26.77    
        26.63       26.48       26.32       26.14       25.93       25.70       25.43       25.12       24.71       24.06    
  14    27.85       27.85       27.84       27.82       27.80       27.78       27.75       27.71       27.67       27.62    
        27.57       27.51       27.45       27.37       27.30       27.21       27.11       27.01       26.89       26.77    
        26.63       26.48       26.32       26.14       25.93       25.70       25.43       25.12       24.71       24.06    
  15    27.85       27.85       27.84       27.82       27.80       27.78       27.75       27.71       27.67       27.62    
        27.57       27.51       27.45       27.37       27.30       27.21       27.11       27.01       26.89       26.77    
        26.63       26.48       26.32       26.14       25.93       25.70       25.43       25.12       24.71       24.06    
  16    27.85       27.85       27.84       27.82       27.80       27.78       27.75       27.71       27.67       27.62    
        27.57       27.51       27.45       27.37       27.30       27.21       27.11       27.01       26.89       26.77    
        26.63       26.48       26.32       26.14       25.93       25.70       25.43       25.12       24.71       24.06    
  17    27.85       27.85       27.84       27.82       27.80       27.78       27.75       27.71       27.67       27.62    
        27.57       27.51       27.45       27.37       27.30       27.21       27.11       27.01       26.89       26.77    
        26.63       26.48       26.32       26.14       25.93       25.70       25.43       25.12       24.71       24.06    
  18    27.85       27.85       27.84       27.82       27.80       27.78       27.75       27.71       27.67       27.62    
        27.57       27.51       27.45       27.37       27.30       27.21       27.11       27.01       26.89       26.77    
        26.63       26.48       26.32       26.14       25.93       25.70       25.43       25.12       24.71       24.06    
  19    27.85       27.85       27.84       27.82       27.80       27.78       27.75       27.71       27.67       27.62    
        27.57       27.51       27.45       27.37       27.30       27.21       27.11       27.01       26.89       26.77    
        26.63       26.48       26.32       26.14       25.93       25.70       25.43       25.12       24.71       24.06    
  20    27.85       27.85       27.84       27.82       27.80       27.78       27.75       27.71       27.67       27.62    
        27.57       27.51       27.45       27.37       27.30       27.21       27.11       27.01       26.89       26.77    
        26.63       26.48       26.32       26.14       25.93       25.70       25.43       25.12       24.71       24.06    
  21    27.85       27.85       27.84       27.82       27.80       27.78       27.75       27.71       27.67       27.62    
        27.57       27.51       27.45       27.37       27.30       27.21       27.11       27.01       26.89       26.77    
        26.63       26.48       26.32       26.14       25.93       25.70       25.43       25.12       24.71       24.06    
  22    27.85       27.85       27.84       27.82       27.80       27.78       27.75       27.71       27.67       27.62    
        27.57       27.51       27.45       27.37       27.30       27.21       27.11       27.01       26.89       26.77    
        26.63       26.48       26.32       26.14       25.93       25.70       25.43       25.12       24.71       24.06    
  23    27.85       27.85       27.84       27.82       27.80       27.78       27.75       27.71       27.67       27.62    
        27.57       27.51       27.45       27.37       27.30       27.21       27.11       27.01       26.89       26.77    
        26.63       26.48       26.32       26.14       25.93       25.70       25.43       25.12       24.71       24.06    
  24    27.85       27.85       27.84       27.82       27.80       27.78       27.75       27.71       27.67       27.62    
        27.57       27.51       27.45       27.37       27.30       27.21       27.11       27.01       26.89       26.77    
        26.63       26.48       26.32       26.14       25.93       25.70       25.43       25.12       24.71       24.06    
  25    27.85       27.85       27.84       27.82       27.80       27.78       27.75       27.71       27.67       27.62    
        27.57       27.51       27.45       27.37       27.30       27.21       27.11       27.01       26.89       26.77    
        26.63       26.48       26.32       26.14       25.93       25.70       25.43       25.12       24.71       24.06    
  26    27.85       27.85       27.84       27.82       27.80       27.78       27.75       27.71       27.67       27.62    
        27.57       27.51       27.45       27.37       27.30       27.21       27.11       27.01       26.89       26.77    
        26.63       26.48       26.32       26.14       25.93       25.70       25.43       25.12       24.71       24.06    
  27    27.85       27.85       27.84       27.82       27.80       27.78       27.75       27.71       27.67       27.62    
        27.57       27.51       27.45       27.37       27.30       27.21       27.11       27.01       26.89       26.77    
        26.63       26.48       26.32       26.14       25.93       25.70       25.43       25.12       24.71       24.06    
  28    27.85       27.85       27.84       27.82       27.80       27.78       27.75       27.71       27.67       27.62    
        27.57       27.51       27.45       27.37       27.30       27.21       27.11       27.01       26.89       26.77    
        26.63       26.48       26.32       26.14       25.93       25.70       25.43       25.12       24.71       24.06    
  29    27.85       27.85       27.84       27.82       27.80       27.78       27.75       27.71       27.67       27.62    
        27.57       27.51       27.45       27.37       27.30       27.21       27.11       27.01       26.89       26.77    
        26.63       26.48       26.32       26.14       25.93       25.70       25.43       25.12       24.71       24.06    
  30    27.85       27.85       27.84       27.82       27.80       27.78       27.75       27.71       27.67       27.62    
        27.57       27.51       27.45       27.37       27.30       27.21       27.11       27.01       26.89       26.77    
        26.63       26.48       26.32       26.14       25.93       25.70       25.43       25.12       24.71       24.06    

 HEAD WILL BE SAVED ON UNIT 1017 AT END OF TIME STEP    1, STRESS PERIOD   12



         TIME SUMMARY AT END OF TIME STEP    1 IN STRESS PERIOD   12
                    SECONDS     MINUTES      HOURS       DAYS        YEARS
                    -----------------------------------------------------------
   TIME STEP LENGTH 2.59200E+05  4320.0      72.000      3.0000     8.21355E-03
 STRESS PERIOD TIME 2.59200E+05  4320.0      72.000      3.0000     8.21355E-03
         TOTAL TIME 2.62656E+07 4.37760E+05  7296.0      304.00     0.83231    
 UBDSV1 SAVING           STO-SS ON UNIT   1016 AT TIME STEP      2, STRESS PERIOD     12
 UBDSV1 SAVING           STO-SY ON UNIT   1016 AT TIME STEP      2, STRESS PERIOD     12
 UBDSV1 SAVING     FLOW-JA-FACE ON UNIT   1016 AT TIME STEP      2, STRESS PERIOD     12
 UBDSV06 SAVING              RCH IN MODEL TEST_TRANS       PACKAGE TEST_TRANS      CONNECTED TO MODEL TEST_TRANS       PACKAGE RCHA             ON UNIT   1016 AT TIME STEP      2, STRESS PERIOD     12
 UBDSV06 SAVING              CHD IN MODEL TEST_TRANS       PACKAGE TEST_TRANS      CONNECTED TO MODEL TEST_TRANS       PACKAGE CHD              ON UNIT   1016 AT TIME STEP      2, STRESS PERIOD     12

 HEAD WILL BE SAVED ON UNIT 1017 AT END OF TIME STEP    2, STRESS PERIOD   12
 UBDSV1 SAVING           STO-SS ON UNIT   1016 AT TIME STEP      3, STRESS PERIOD     12
 UBDSV1 SAVING           STO-SY ON UNIT   1016 AT TIME STEP      3, STRESS PERIOD     12
 UBDSV1 SAVING     FLOW-JA-FACE ON UNIT   1016 AT TIME STEP      3, STRESS PERIOD     12
 UBDSV06 SAVING              RCH IN MODEL TEST_TRANS       PACKAGE TEST_TRANS      CONNECTED TO MODEL TEST_TRANS       PACKAGE RCHA             ON UNIT   1016 AT TIME STEP      3, STRESS PERIOD     12
 UBDSV06 SAVING              CHD IN MODEL TEST_TRANS       PACKAGE TEST_TRANS      CONNECTED TO MODEL TEST_TRANS       PACKAGE CHD              ON UNIT   1016 AT TIME STEP      3, STRESS PERIOD     12

 HEAD WILL BE SAVED ON UNIT 1017 AT END OF TIME STEP    3, STRESS PERIOD   12
 UBDSV1 SAVING           STO-SS ON UNIT   1016 AT TIME STEP      4, STRESS PERIOD     12
 UBDSV1 SAVING           STO-SY ON UNIT   1016 AT TIME STEP      4, STRESS PERIOD     12
 UBDSV1 SAVING     FLOW-JA-FACE ON UNIT   1016 AT TIME STEP      4, STRESS PERIOD     12
 UBDSV06 SAVING              RCH IN MODEL TEST_TRANS       PACKAGE TEST_TRANS      CONNECTED TO MODEL TEST_TRANS       PACKAGE RCHA             ON UNIT   1016 AT TIME STEP      4, STRESS PERIOD     12
 UBDSV06 SAVING              CHD IN MODEL TEST_TRANS       PACKAGE TEST_TRANS      CONNECTED TO MODEL TEST_TRANS       PACKAGE CHD              ON UNIT   1016 AT TIME STEP      4, STRESS PERIOD     12

 HEAD WILL BE SAVED ON UNIT 1017 AT END OF TIME STEP    4, STRESS PERIOD   12
 UBDSV1 SAVING           STO-SS ON UNIT   1016 AT TIME STEP      5, STRESS PERIOD     12
 UBDSV1 SAVING           STO-SY ON UNIT   1016 AT TIME STEP      5, STRESS PERIOD     12
 UBDSV1 SAVING     FLOW-JA-FACE ON UNIT   1016 AT TIME STEP      5, STRESS PERIOD     12
 UBDSV06 SAVING              RCH IN MODEL TEST_TRANS       PACKAGE TEST_TRANS      CONNECTED TO MODEL TEST_TRANS       PACKAGE RCHA             ON UNIT   1016 AT TIME STEP      5, STRESS PERIOD     12
 UBDSV06 SAVING              CHD IN MODEL TEST_TRANS       PACKAGE TEST_TRANS      CONNECTED TO MODEL TEST_TRANS       PACKAGE CHD              ON UNIT   1016 AT TIME STEP      5, STRESS PERIOD     12

 HEAD WILL BE SAVED ON UNIT 1017 AT END OF TIME STEP    5, STRESS PERIOD   12
 UBDSV1 SAVING           STO-SS ON UNIT   1016 AT TIME STEP      6, STRESS PERIOD     12
 UBDSV1 SAVING           STO-SY ON UNIT   1016 AT TIME STEP      6, STRESS PERIOD     12
 UBDSV1 SAVING     FLOW-JA-FACE ON UNIT   1016 AT TIME STEP      6, STRESS PERIOD     12
 UBDSV06 SAVING              RCH IN MODEL TEST_TRANS       PACKAGE TEST_TRANS      CONNECTED TO MODEL TEST_TRANS       PACKAGE RCHA             ON UNIT   1016 AT TIME STEP      6, STRESS PERIOD     12
 UBDSV06 SAVING              CHD IN MODEL TEST_TRANS       PACKAGE TEST_TRANS      CONNECTED TO MODEL TEST_TRANS       PACKAGE CHD              ON UNIT   1016 AT TIME STEP      6, STRESS PERIOD     12

 HEAD WILL BE SAVED ON UNIT 1017 AT END OF TIME STEP    6, STRESS PERIOD   12
 UBDSV1 SAVING           STO-SS ON UNIT   1016 AT TIME STEP      7, STRESS PERIOD     12
 UBDSV1 SAVING           STO-SY ON UNIT   1016 AT TIME STEP      7, STRESS PERIOD     12
 UBDSV1 SAVING     FLOW-JA-FACE ON UNIT   1016 AT TIME STEP      7, STRESS PERIOD     12
 UBDSV06 SAVING              RCH IN MODEL TEST_TRANS       PACKAGE TEST_TRANS      CONNECTED TO MODEL TEST_TRANS       PACKAGE RCHA             ON UNIT   1016 AT TIME STEP      7, STRESS PERIOD     12
 UBDSV06 SAVING              CHD IN MODEL TEST_TRANS       PACKAGE TEST_TRANS      CONNECTED TO MODEL TEST_TRANS       PACKAGE CHD              ON UNIT   1016 AT TIME STEP      7, STRESS PERIOD     12

 HEAD WILL BE SAVED ON UNIT 1017 AT END OF TIME STEP    7, STRESS PERIOD   12
 UBDSV1 SAVING           STO-SS ON UNIT   1016 AT TIME STEP      8, STRESS PERIOD     12
 UBDSV1 SAVING           STO-SY ON UNIT   1016 AT TIME STEP      8, STRESS PERIOD     12
 UBDSV1 SAVING     FLOW-JA-FACE ON UNIT   1016 AT TIME STEP      8, STRESS PERIOD     12
 UBDSV06 SAVING              RCH IN MODEL TEST_TRANS       PACKAGE TEST_TRANS      CONNECTED TO MODEL TEST_TRANS       PACKAGE RCHA             ON UNIT   1016 AT TIME STEP      8, STRESS PERIOD     12
 UBDSV06 SAVING              CHD IN MODEL TEST_TRANS       PACKAGE TEST_TRANS      CONNECTED TO MODEL TEST_TRANS       PACKAGE CHD              ON UNIT   1016 AT TIME STEP      8, STRESS PERIOD     12

 HEAD WILL BE SAVED ON UNIT 1017 AT END OF TIME STEP    8, STRESS PERIOD   12
 UBDSV1 SAVING           STO-SS ON UNIT   1016 AT TIME STEP      9, STRESS PERIOD     12
 UBDSV1 SAVING           STO-SY ON UNIT   1016 AT TIME STEP      9, STRESS PERIOD     12
 UBDSV1 SAVING     FLOW-JA-FACE ON UNIT   1016 AT TIME STEP      9, STRESS PERIOD     12
 UBDSV06 SAVING              RCH IN MODEL TEST_TRANS       PACKAGE TEST_TRANS      CONNECTED TO MODEL TEST_TRANS       PACKAGE RCHA             ON UNIT   1016 AT TIME STEP      9, STRESS PERIOD     12
 UBDSV06 SAVING              CHD IN MODEL TEST_TRANS       PACKAGE TEST_TRANS      CONNECTED TO MODEL TEST_TRANS       PACKAGE CHD              ON UNIT   1016 AT TIME STEP      9, STRESS PERIOD     12

 HEAD WILL BE SAVED ON UNIT 1017 AT END OF TIME STEP    9, STRESS PERIOD   12
 UBDSV1 SAVING           STO-SS ON UNIT   1016 AT TIME STEP     10, STRESS PERIOD     12
 UBDSV1 SAVING           STO-SY ON UNIT   1016 AT TIME STEP     10, STRESS PERIOD     12
 UBDSV1 SAVING     FLOW-JA-FACE ON UNIT   1016 AT TIME STEP     10, STRESS PERIOD     12
 UBDSV06 SAVING              RCH IN MODEL TEST_TRANS       PACKAGE TEST_TRANS      CONNECTED TO MODEL TEST_TRANS       PACKAGE RCHA             ON UNIT   1016 AT TIME STEP     10, STRESS PERIOD     12
 UBDSV06 SAVING              CHD IN MODEL TEST_TRANS       PACKAGE TEST_TRANS      CONNECTED TO MODEL TEST_TRANS       PACKAGE CHD              ON UNIT   1016 AT TIME STEP     10, STRESS PERIOD     12
1
  HEAD IN LAYER   1 AT END OF TIME STEP  10 IN STRESS PERIOD   12
  ---------------------------------------------------------------------------

            1           2           3           4           5           6           7           8           9          10
           11          12          13          14          15          16          17          18          19          20
           21          22          23          24          25          26          27          28          29          30
 ........................................................................................................................
   1    27.93       27.93       27.92       27.90       27.88       27.86       27.82       27.79       27.74       27.70    
        27.64       27.58       27.51       27.44       27.35       27.26       27.16       27.06       26.94       26.81    
        26.67       26.51       26.34       26.15       25.94       25.70       25.42       25.09       24.68       24.06    
   2    27.93       27.93       27.92       27.90       27.88       27.86       27.82       27.79       27.74       27.70    
        27.64       27.58       27.51       27.44       27.35       27.26       27.16       27.06       26.94       26.81    
        26.67       26.51       26.34       26.15       25.94       25.70       25.42       25.09       24.68       24.06    
   3    27.93       27.93       27.92       27.90       27.88       27.86       27.82       27.79       27.74       27.70    
        27.64       27.58       27.51       27.44       27.35       27.26       27.16       27.06       26.94       26.81    
        26.67       26.51       26.34       26.15       25.94       25.70       25.42       25.09       24.68       24.06    
   4    27.93       27.93       27.92       27.90       27.88       27.86       27.82       27.79       27.74       27.70    
        27.64       27.58       27.51       27.44       27.35       27.26       27.16       27.06       26.94       26.81    
        26.67       26.51       26.34       26.15       25.94       25.70       25.42       25.09       24.68       24.06    
   5    27.93       27.93       27.92       27.90       27.88       27.86       27.82       27.79       27.74       27.70    
        27.64       27.58       27.51       27.44       27.35       27.26       27.16       27.06       26.94       26.81    
        26.67       26.51       26.34       26.15       25.94       25.70       25.42       25.09       24.68       24.06    
   6    27.93       27.93       27.92       27.90       27.88       27.86       27.82       27.79       27.74       27.70    
        27.64       27.58       27.51       27.44       27.35       27.26       27.16       27.06       26.94       26.81    
        26.67       26.51       26.34       26.15       25.94       25.70       25.42       25.09       24.68       24.06    
   7    27.93       27.93       27.92       27.90       27.88       27.86       27.82       27.79       27.74       27.70    
        27.64       27.58       27.51       27.44       27.35       27.26       27.16       27.06       26.94       26.81    
        26.67       26.51       26.34       26.15       25.94       25.70       25.42       25.09       24.68       24.06    
   8    27.93       27.93       27.92       27.90       27.88       27.86       27.82       27.79       27.74       27.70    
        27.64       27.58       27.51       27.44       27.35       27.26       27.16       27.06       26.94       26.81    
        26.67       26.51       26.34       26.15       25.94       25.70       25.42       25.09       24.68       24.06    
   9    27.93       27.93       27.92       27.90       27.88       27.86       27.82       27.79       27.74       27.70    
        27.64       27.58       27.51       27.44       27.35       27.26       27.16       27.06       26.94       26.81    
        26.67       26.51       26.34       26.15       25.94       25.70       25.42       25.09       24.68       24.06    
  10    27.93       27.93       27.92       27.90       27.88       27.86       27.82       27.79       27.74       27.70    
        27.64       27.58       27.51       27.44       27.35       27.26       27.16       27.06       26.94       26.81    
        26.67       26.51       26.34       26.15       25.94       25.70       25.42       25.09       24.68       24.06    
  11    27.93       27.93       27.92       27.90       27.88       27.86       27.82       27.79       27.74       27.70    
        27.64       27.58       27.51       27.44       27.35       27.26       27.16       27.06       26.94       26.81    
        26.67       26.51       26.34       26.15       25.94       25.70       25.42       25.09       24.68       24.06    
  12    27.93       27.93       27.92       27.90       27.88       27.86       27.82       27.79       27.74       27.70    
        27.64       27.58       27.51       27.44       27.35       27.26       27.16       27.06       26.94       26.81    
        26.67       26.51       26.34       26.15       25.94       25.70       25.42       25.09       24.68       24.06    
  13    27.93       27.93       27.92       27.90       27.88       27.86       27.82       27.79       27.74       27.70    
        27.64       27.58       27.51       27.44       27.35       27.26       27.16       27.06       26.94       26.81    
        26.67       26.51       26.34       26.15       25.94       25.70       25.42       25.09       24.68       24.06    
  14    27.93       27.93       27.92       27.90       27.88       27.86       27.82       27.79       27.74       27.70    
        27.64       27.58       27.51       27.44       27.35       27.26       27.16       27.06       26.94       26.81    
        26.67       26.51       26.34       26.15       25.94       25.70       25.42       25.09       24.68       24.06    
  15    27.93       27.93       27.92       27.90       27.88       27.86       27.82       27.79       27.74       27.70    
        27.64       27.58       27.51       27.44       27.35       27.26       27.16       27.06       26.94       26.81    
        26.67       26.51       26.34       26.15       25.94       25.70       25.42       25.09       24.68       24.06    
  16    27.93       27.93       27.92       27.90       27.88       27.86       27.82       27.79       27.74       27.70    
        27.64       27.58       27.51       27.44       27.35       27.26       27.16       27.06       26.94       26.81    
        26.67       26.51       26.34       26.15       25.94       25.70       25.42       25.09       24.68       24.06    
  17    27.93       27.93       27.92       27.90       27.88       27.86       27.82       27.79       27.74       27.70    
        27.64       27.58       27.51       27.44       27.35       27.26       27.16       27.06       26.94       26.81    
        26.67       26.51       26.34       26.15       25.94       25.70       25.42       25.09       24.68       24.06    
  18    27.93       27.93       27.92       27.90       27.88       27.86       27.82       27.79       27.74       27.70    
        27.64       27.58       27.51       27.44       27.35       27.26       27.16       27.06       26.94       26.81    
        26.67       26.51       26.34       26.15       25.94       25.70       25.42       25.09       24.68       24.06    
  19    27.93       27.93       27.92       27.90       27.88       27.86       27.82       27.79       27.74       27.70    
        27.64       27.58       27.51       27.44       27.35       27.26       27.16       27.06       26.94       26.81    
        26.67       26.51       26.34       26.15       25.94       25.70       25.42       25.09       24.68       24.06    
  20    27.93       27.93       27.92       27.90       27.88       27.86       27.82       27.79       27.74       27.70    
        27.64       27.58       27.51       27.44       27.35       27.26       27.16       27.06       26.94       26.81    
        26.67       26.51       26.34       26.15       25.94       25.70       25.42       25.09       24.68       24.06    
  21    27.93       27.93       27.92       27.90       27.88       27.86       27.82       27.79       27.74       27.70    
        27.64       27.58       27.51       27.44       27.35       27.26       27.16       27.06       26.94       26.81    
        26.67       26.51       26.34       26.15       25.94       25.70       25.42       25.09       24.68       24.06    
  22    27.93       27.93       27.92       27.90       27.88       27.86       27.82       27.79       27.74       27.70    
        27.64       27.58       27.51       27.44       27.35       27.26       27.16       27.06       26.94       26.81    
        26.67       26.51       26.34       26.15       25.94       25.70       25.42       25.09       24.68       24.06    
  23    27.93       27.93       27.92       27.90       27.88       27.86       27.82       27.79       27.74       27.70    
        27.64       27.58       27.51       27.44       27.35       27.26       27.16       27.06       26.94       26.81    
        26.67       26.51       26.34       26.15       25.94       25.70       25.42       25.09       24.68       24.06    
  24    27.93       27.93       27.92       27.90       27.88       27.86       27.82       27.79       27.74       27.70    
        27.64       27.58       27.51       27.44       27.35       27.26       27.16       27.06       26.94       26.81    
        26.67       26.51       26.34       26.15       25.94       25.70       25.42       25.09       24.68       24.06    
  25    27.93       27.93       27.92       27.90       27.88       27.86       27.82       27.79       27.74       27.70    
        27.64       27.58       27.51       27.44       27.35       27.26       27.16       27.06       26.94       26.81    
        26.67       26.51       26.34       26.15       25.94       25.70       25.42       25.09       24.68       24.06    
  26    27.93       27.93       27.92       27.90       27.88       27.86       27.82       27.79       27.74       27.70    
        27.64       27.58       27.51       27.44       27.35       27.26       27.16       27.06       26.94       26.81    
        26.67       26.51       26.34       26.15       25.94       25.70       25.42       25.09       24.68       24.06    
  27    27.93       27.93       27.92       27.90       27.88       27.86       27.82       27.79       27.74       27.70    
        27.64       27.58       27.51       27.44       27.35       27.26       27.16       27.06       26.94       26.81    
        26.67       26.51       26.34       26.15       25.94       25.70       25.42       25.09       24.68       24.06    
  28    27.93       27.93       27.92       27.90       27.88       27.86       27.82       27.79       27.74       27.70    
        27.64       27.58       27.51       27.44       27.35       27.26       27.16       27.06       26.94       26.81    
        26.67       26.51       26.34       26.15       25.94       25.70       25.42       25.09       24.68       24.06    
  29    27.93       27.93       27.92       27.90       27.88       27.86       27.82       27.79       27.74       27.70    
        27.64       27.58       27.51       27.44       27.35       27.26       27.16       27.06       26.94       26.81    
        26.67       26.51       26.34       26.15       25.94       25.70       25.42       25.09       24.68       24.06    
  30    27.93       27.93       27.92       27.90       27.88       27.86       27.82       27.79       27.74       27.70    
        27.64       27.58       27.51       27.44       27.35       27.26       27.16       27.06       26.94       26.81    
        26.67       26.51       26.34       26.15       25.94       25.70       25.42       25.09       24.68       24.06    

 HEAD WILL BE SAVED ON UNIT 1017 AT END OF TIME STEP   10, STRESS PERIOD   12


  VOLUME BUDGET FOR ENTIRE MODEL AT END OF TIME STEP   10, STRESS PERIOD  12
  ---------------------------------------------------------------------------------------------------

     CUMULATIVE VOLUME      L**3       RATES FOR THIS TIME STEP      L**3/T          PACKAGE NAME    
     ------------------                 ------------------------                     ----------------

           IN:                                      IN:
           ---                                      ---
              STO-SS =          23.1669                STO-SS =           0.0000     STORAGE         
              STO-SY =       14839.5172                STO-SY =           0.0000     STORAGE         
                 RCH =       52795.9083                   RCH =         238.3565     RCHA            
                 CHD =        1052.4133                   CHD =           0.0000     CHD             

            TOTAL IN =       68711.0057              TOTAL IN =         238.3565

          OUT:                                     OUT:
          ----                                     ----
              STO-SS =          12.1702                STO-SS =       4.9124E-02     STORAGE         
              STO-SY =        7932.0460                STO-SY =          30.8061     STORAGE         
                 RCH =           0.0000                   RCH =           0.0000     RCHA            
                 CHD =       60766.5255                   CHD =         207.5263     CHD             

           TOTAL OUT =       68710.7417             TOTAL OUT =         238.3816

            IN - OUT =           0.2640              IN - OUT =      -2.5055E-02

 PERCENT DISCREPANCY =           0.00     PERCENT DISCREPANCY =          -0.01




         TIME SUMMARY AT END OF TIME STEP   10 IN STRESS PERIOD   12
                    SECONDS     MINUTES      HOURS       DAYS        YEARS
                    -----------------------------------------------------------
   TIME STEP LENGTH 2.59200E+05  4320.0      72.000      3.0000     8.21355E-03
 STRESS PERIOD TIME 2.59200E+06  43200.      720.00      30.000     8.21355E-02
         TOTAL TIME 2.85984E+07 4.76640E+05  7944.0      331.00     0.90623    

 OUTPUT CONTROL FOR STRESS PERIOD 13 IS REPEATED USING SETTINGS FROM A PREVIOUS STRESS PERIOD.


 STRESS PERIOD 13 IS TRANSIENT


                 RECHARGE =  0.2739730E-02
 UBDSV1 SAVING           STO-SS ON UNIT   1016 AT TIME STEP      1, STRESS PERIOD     13
 UBDSV1 SAVING           STO-SY ON UNIT   1016 AT TIME STEP      1, STRESS PERIOD     13
 UBDSV1 SAVING     FLOW-JA-FACE ON UNIT   1016 AT TIME STEP      1, STRESS PERIOD     13
 UBDSV06 SAVING              RCH IN MODEL TEST_TRANS       PACKAGE TEST_TRANS      CONNECTED TO MODEL TEST_TRANS       PACKAGE RCHA             ON UNIT   1016 AT TIME STEP      1, STRESS PERIOD     13
 UBDSV06 SAVING              CHD IN MODEL TEST_TRANS       PACKAGE TEST_TRANS      CONNECTED TO MODEL TEST_TRANS       PACKAGE CHD              ON UNIT   1016 AT TIME STEP      1, STRESS PERIOD     13
1
  HEAD IN LAYER   1 AT END OF TIME STEP   1 IN STRESS PERIOD   13
  ---------------------------------------------------------------------------

            1           2           3           4           5           6           7           8           9          10
           11          12          13          14          15          16          17          18          19          20
           21          22          23          24          25          26          27          28          29          30
 ........................................................................................................................
   1    27.94       27.94       27.93       27.91       27.89       27.86       27.83       27.80       27.75       27.70    
        27.65       27.59       27.52       27.44       27.36       27.27       27.17       27.06       26.94       26.81    
        26.67       26.52       26.35       26.16       25.95       25.71       25.44       25.13       24.76       24.32    
   2    27.94       27.94       27.93       27.91       27.89       27.86       27.83       27.80       27.75       27.70    
        27.65       27.59       27.52       27.44       27.36       27.27       27.17       27.06       26.94       26.81    
        26.67       26.52       26.35       26.16       25.95       25.71       25.44       25.13       24.76       24.32    
   3    27.94       27.94       27.93       27.91       27.89       27.86       27.83       27.80       27.75       27.70    
        27.65       27.59       27.52       27.44       27.36       27.27       27.17       27.06       26.94       26.81    
        26.67       26.52       26.35       26.16       25.94       25.71       25.44       25.13       24.76       24.32    
   4    27.94       27.94       27.93       27.91       27.89       27.86       27.83       27.80       27.75       27.70    
        27.65       27.59       27.52       27.44       27.36       27.27       27.17       27.06       26.94       26.81    
        26.67       26.52       26.35       26.16       25.94       25.71       25.44       25.13       24.76       24.32    
   5    27.94       27.94       27.93       27.91       27.89       27.86       27.83       27.80       27.75       27.70    
        27.65       27.59       27.52       27.44       27.36       27.27       27.17       27.06       26.94       26.81    
        26.67       26.52       26.35       26.16       25.94       25.71       25.44       25.13       24.76       24.32    
   6    27.94       27.94       27.93       27.91       27.89       27.86       27.83       27.80       27.75       27.70    
        27.65       27.59       27.52       27.44       27.36       27.27       27.17       27.06       26.94       26.81    
        26.67       26.52       26.35       26.16       25.94       25.71       25.44       25.13       24.76       24.32    
   7    27.94       27.94       27.93       27.91       27.89       27.86       27.83       27.80       27.75       27.70    
        27.65       27.59       27.52       27.44       27.36       27.27       27.17       27.06       26.94       26.81    
        26.67       26.52       26.35       26.16       25.94       25.71       25.44       25.13       24.76       24.32    
   8    27.94       27.94       27.93       27.91       27.89       27.86       27.83       27.80       27.75       27.70    
        27.65       27.59       27.52       27.44       27.36       27.27       27.17       27.06       26.94       26.81    
        26.67       26.52       26.35       26.16       25.94       25.71       25.44       25.13       24.76       24.32    
   9    27.94       27.94       27.93       27.91       27.89       27.86       27.83       27.80       27.75       27.70    
        27.65       27.59       27.52       27.44       27.36       27.27       27.17       27.06       26.94       26.81    
        26.67       26.52       26.35       26.16       25.94       25.71       25.44       25.13       24.76       24.32    
  10    27.94       27.94       27.93       27.91       27.89       27.86       27.83       27.80       27.75       27.70    
        27.65       27.59       27.52       27.44       27.36       27.27       27.17       27.06       26.94       26.81    
        26.67       26.52       26.35       26.16       25.94       25.71       25.44       25.13       24.76       24.32    
  11    27.94       27.94       27.93       27.91       27.89       27.86       27.83       27.80       27.75       27.70    
        27.65       27.59       27.52       27.44       27.36       27.27       27.17       27.06       26.94       26.81    
        26.67       26.52       26.35       26.16       25.94       25.71       25.44       25.13       24.76       24.32    
  12    27.94       27.94       27.93       27.91       27.89       27.86       27.83       27.80       27.75       27.70    
        27.65       27.59       27.52       27.44       27.36       27.27       27.17       27.06       26.94       26.81    
        26.67       26.52       26.35       26.16       25.94       25.71       25.44       25.13       24.76       24.32    
  13    27.94       27.94       27.93       27.91       27.89       27.86       27.83       27.80       27.75       27.70    
        27.65       27.59       27.52       27.44       27.36       27.27       27.17       27.06       26.94       26.81    
        26.67       26.52       26.35       26.16       25.94       25.71       25.44       25.13       24.76       24.32    
  14    27.94       27.94       27.93       27.91       27.89       27.86       27.83       27.80       27.75       27.70    
        27.65       27.59       27.52       27.44       27.36       27.27       27.17       27.06       26.94       26.81    
        26.67       26.52       26.35       26.16       25.94       25.71       25.44       25.13       24.76       24.32    
  15    27.94       27.94       27.93       27.91       27.89       27.86       27.83       27.80       27.75       27.70    
        27.65       27.59       27.52       27.44       27.36       27.27       27.17       27.06       26.94       26.81    
        26.67       26.52       26.35       26.16       25.94       25.71       25.44       25.13       24.76       24.32    
  16    27.94       27.94       27.93       27.91       27.89       27.86       27.83       27.80       27.75       27.70    
        27.65       27.59       27.52       27.44       27.36       27.27       27.17       27.06       26.94       26.81    
        26.67       26.52       26.35       26.16       25.94       25.71       25.44       25.13       24.76       24.32    
  17    27.94       27.94       27.93       27.91       27.89       27.86       27.83       27.80       27.75       27.70    
        27.65       27.59       27.52       27.44       27.36       27.27       27.17       27.06       26.94       26.81    
        26.67       26.52       26.35       26.16       25.94       25.71       25.44       25.13       24.76       24.32    
  18    27.94       27.94       27.93       27.91       27.89       27.86       27.83       27.80       27.75       27.70    
        27.65       27.59       27.52       27.44       27.36       27.27       27.17       27.06       26.94       26.81    
        26.67       26.52       26.35       26.16       25.94       25.71       25.44       25.13       24.76       24.32    
  19    27.94       27.94       27.93       27.91       27.89       27.86       27.83       27.80       27.75       27.70    
        27.65       27.59       27.52       27.44       27.36       27.27       27.17       27.06       26.94       26.81    
        26.67       26.52       26.35       26.16       25.94       25.71       25.44       25.13       24.76       24.32    
  20    27.94       27.94       27.93       27.91       27.89       27.86       27.83       27.80       27.75       27.70    
        27.65       27.59       27.52       27.44       27.36       27.27       27.17       27.06       26.94       26.81    
        26.67       26.52       26.35       26.16       25.94       25.71       25.44       25.13       24.76       24.32    
  21    27.94       27.94       27.93       27.91       27.89       27.86       27.83       27.80       27.75       27.70    
        27.65       27.59       27.52       27.44       27.36       27.27       27.17       27.06       26.94       26.81    
        26.67       26.52       26.35       26.16       25.94       25.71       25.44       25.13       24.76       24.32    
  22    27.94       27.94       27.93       27.91       27.89       27.86       27.83       27.80       27.75       27.70    
        27.65       27.59       27.52       27.44       27.36       27.27       27.17       27.06       26.94       26.81    
        26.67       26.52       26.35       26.16       25.94       25.71       25.44       25.13       24.76       24.32    
  23    27.94       27.94       27.93       27.91       27.89       27.86       27.83       27.80       27.75       27.70    
        27.65       27.59       27.52       27.44       27.36       27.27       27.17       27.06       26.94       26.81    
        26.67       26.52       26.35       26.16       25.94       25.71       25.44       25.13       24.76       24.32    
  24    27.94       27.94       27.93       27.91       27.89       27.86       27.83       27.80       27.75       27.70    
        27.65       27.59       27.52       27.44       27.36       27.27       27.17       27.06       26.94       26.81    
        26.67       26.52       26.35       26.16       25.94       25.71       25.44       25.13       24.76       24.32    
  25    27.94       27.94       27.93       27.91       27.89       27.86       27.83       27.80       27.75       27.70    
        27.65       27.59       27.52       27.44       27.36       27.27       27.17       27.06       26.94       26.81    
        26.67       26.52       26.35       26.16       25.94       25.71       25.44       25.13       24.76       24.32    
  26    27.94       27.94       27.93       27.91       27.89       27.86       27.83       27.80       27.75       27.70    
        27.65       27.59       27.52       27.44       27.36       27.27       27.17       27.06       26.94       26.81    
        26.67       26.52       26.35       26.16       25.94       25.71       25.44       25.13       24.76       24.32    
  27    27.94       27.94       27.93       27.91       27.89       27.86       27.83       27.80       27.75       27.70    
        27.65       27.59       27.52       27.44       27.36       27.27       27.17       27.06       26.94       26.81    
        26.67       26.52       26.35       26.16       25.94       25.71       25.44       25.13       24.76       24.32    
  28    27.94       27.94       27.93       27.91       27.89       27.86       27.83       27.80       27.75       27.70    
        27.65       27.59       27.52       27.44       27.36       27.27       27.17       27.06       26.94       26.81    
        26.67       26.52       26.35       26.16       25.94       25.71       25.44       25.13       24.76       24.32    
  29    27.94       27.94       27.93       27.91       27.89       27.86       27.83       27.80       27.75       27.70    
        27.65       27.59       27.52       27.44       27.36       27.27       27.17       27.06       26.94       26.81    
        26.67       26.52       26.35       26.16       25.94       25.71       25.44       25.13       24.76       24.32    
  30    27.94       27.94       27.93       27.91       27.89       27.86       27.83       27.80       27.75       27.70    
        27.65       27.59       27.52       27.44       27.36       27.27       27.17       27.06       26.94       26.81    
        26.67       26.52       26.35       26.16       25.94       25.71       25.44       25.13       24.76       24.32    

 HEAD WILL BE SAVED ON UNIT 1017 AT END OF TIME STEP    1, STRESS PERIOD   13



         TIME SUMMARY AT END OF TIME STEP    1 IN STRESS PERIOD   13
                    SECONDS     MINUTES      HOURS       DAYS        YEARS
                    -----------------------------------------------------------
   TIME STEP LENGTH 2.59200E+05  4320.0      72.000      3.0000     8.21355E-03
 STRESS PERIOD TIME 2.59200E+05  4320.0      72.000      3.0000     8.21355E-03
         TOTAL TIME 2.88576E+07 4.80960E+05  8016.0      334.00     0.91444    
 UBDSV1 SAVING           STO-SS ON UNIT   1016 AT TIME STEP      2, STRESS PERIOD     13
 UBDSV1 SAVING           STO-SY ON UNIT   1016 AT TIME STEP      2, STRESS PERIOD     13
 UBDSV1 SAVING     FLOW-JA-FACE ON UNIT   1016 AT TIME STEP      2, STRESS PERIOD     13
 UBDSV06 SAVING              RCH IN MODEL TEST_TRANS       PACKAGE TEST_TRANS      CONNECTED TO MODEL TEST_TRANS       PACKAGE RCHA             ON UNIT   1016 AT TIME STEP      2, STRESS PERIOD     13
 UBDSV06 SAVING              CHD IN MODEL TEST_TRANS       PACKAGE TEST_TRANS      CONNECTED TO MODEL TEST_TRANS       PACKAGE CHD              ON UNIT   1016 AT TIME STEP      2, STRESS PERIOD     13

 HEAD WILL BE SAVED ON UNIT 1017 AT END OF TIME STEP    2, STRESS PERIOD   13
 UBDSV1 SAVING           STO-SS ON UNIT   1016 AT TIME STEP      3, STRESS PERIOD     13
 UBDSV1 SAVING           STO-SY ON UNIT   1016 AT TIME STEP      3, STRESS PERIOD     13
 UBDSV1 SAVING     FLOW-JA-FACE ON UNIT   1016 AT TIME STEP      3, STRESS PERIOD     13
 UBDSV06 SAVING              RCH IN MODEL TEST_TRANS       PACKAGE TEST_TRANS      CONNECTED TO MODEL TEST_TRANS       PACKAGE RCHA             ON UNIT   1016 AT TIME STEP      3, STRESS PERIOD     13
 UBDSV06 SAVING              CHD IN MODEL TEST_TRANS       PACKAGE TEST_TRANS      CONNECTED TO MODEL TEST_TRANS       PACKAGE CHD              ON UNIT   1016 AT TIME STEP      3, STRESS PERIOD     13

 HEAD WILL BE SAVED ON UNIT 1017 AT END OF TIME STEP    3, STRESS PERIOD   13
 UBDSV1 SAVING           STO-SS ON UNIT   1016 AT TIME STEP      4, STRESS PERIOD     13
 UBDSV1 SAVING           STO-SY ON UNIT   1016 AT TIME STEP      4, STRESS PERIOD     13
 UBDSV1 SAVING     FLOW-JA-FACE ON UNIT   1016 AT TIME STEP      4, STRESS PERIOD     13
 UBDSV06 SAVING              RCH IN MODEL TEST_TRANS       PACKAGE TEST_TRANS      CONNECTED TO MODEL TEST_TRANS       PACKAGE RCHA             ON UNIT   1016 AT TIME STEP      4, STRESS PERIOD     13
 UBDSV06 SAVING              CHD IN MODEL TEST_TRANS       PACKAGE TEST_TRANS      CONNECTED TO MODEL TEST_TRANS       PACKAGE CHD              ON UNIT   1016 AT TIME STEP      4, STRESS PERIOD     13

 HEAD WILL BE SAVED ON UNIT 1017 AT END OF TIME STEP    4, STRESS PERIOD   13
 UBDSV1 SAVING           STO-SS ON UNIT   1016 AT TIME STEP      5, STRESS PERIOD     13
 UBDSV1 SAVING           STO-SY ON UNIT   1016 AT TIME STEP      5, STRESS PERIOD     13
 UBDSV1 SAVING     FLOW-JA-FACE ON UNIT   1016 AT TIME STEP      5, STRESS PERIOD     13
 UBDSV06 SAVING              RCH IN MODEL TEST_TRANS       PACKAGE TEST_TRANS      CONNECTED TO MODEL TEST_TRANS       PACKAGE RCHA             ON UNIT   1016 AT TIME STEP      5, STRESS PERIOD     13
 UBDSV06 SAVING              CHD IN MODEL TEST_TRANS       PACKAGE TEST_TRANS      CONNECTED TO MODEL TEST_TRANS       PACKAGE CHD              ON UNIT   1016 AT TIME STEP      5, STRESS PERIOD     13

 HEAD WILL BE SAVED ON UNIT 1017 AT END OF TIME STEP    5, STRESS PERIOD   13
 UBDSV1 SAVING           STO-SS ON UNIT   1016 AT TIME STEP      6, STRESS PERIOD     13
 UBDSV1 SAVING           STO-SY ON UNIT   1016 AT TIME STEP      6, STRESS PERIOD     13
 UBDSV1 SAVING     FLOW-JA-FACE ON UNIT   1016 AT TIME STEP      6, STRESS PERIOD     13
 UBDSV06 SAVING              RCH IN MODEL TEST_TRANS       PACKAGE TEST_TRANS      CONNECTED TO MODEL TEST_TRANS       PACKAGE RCHA             ON UNIT   1016 AT TIME STEP      6, STRESS PERIOD     13
 UBDSV06 SAVING              CHD IN MODEL TEST_TRANS       PACKAGE TEST_TRANS      CONNECTED TO MODEL TEST_TRANS       PACKAGE CHD              ON UNIT   1016 AT TIME STEP      6, STRESS PERIOD     13

 HEAD WILL BE SAVED ON UNIT 1017 AT END OF TIME STEP    6, STRESS PERIOD   13
 UBDSV1 SAVING           STO-SS ON UNIT   1016 AT TIME STEP      7, STRESS PERIOD     13
 UBDSV1 SAVING           STO-SY ON UNIT   1016 AT TIME STEP      7, STRESS PERIOD     13
 UBDSV1 SAVING     FLOW-JA-FACE ON UNIT   1016 AT TIME STEP      7, STRESS PERIOD     13
 UBDSV06 SAVING              RCH IN MODEL TEST_TRANS       PACKAGE TEST_TRANS      CONNECTED TO MODEL TEST_TRANS       PACKAGE RCHA             ON UNIT   1016 AT TIME STEP      7, STRESS PERIOD     13
 UBDSV06 SAVING              CHD IN MODEL TEST_TRANS       PACKAGE TEST_TRANS      CONNECTED TO MODEL TEST_TRANS       PACKAGE CHD              ON UNIT   1016 AT TIME STEP      7, STRESS PERIOD     13

 HEAD WILL BE SAVED ON UNIT 1017 AT END OF TIME STEP    7, STRESS PERIOD   13
 UBDSV1 SAVING           STO-SS ON UNIT   1016 AT TIME STEP      8, STRESS PERIOD     13
 UBDSV1 SAVING           STO-SY ON UNIT   1016 AT TIME STEP      8, STRESS PERIOD     13
 UBDSV1 SAVING     FLOW-JA-FACE ON UNIT   1016 AT TIME STEP      8, STRESS PERIOD     13
 UBDSV06 SAVING              RCH IN MODEL TEST_TRANS       PACKAGE TEST_TRANS      CONNECTED TO MODEL TEST_TRANS       PACKAGE RCHA             ON UNIT   1016 AT TIME STEP      8, STRESS PERIOD     13
 UBDSV06 SAVING              CHD IN MODEL TEST_TRANS       PACKAGE TEST_TRANS      CONNECTED TO MODEL TEST_TRANS       PACKAGE CHD              ON UNIT   1016 AT TIME STEP      8, STRESS PERIOD     13

 HEAD WILL BE SAVED ON UNIT 1017 AT END OF TIME STEP    8, STRESS PERIOD   13
 UBDSV1 SAVING           STO-SS ON UNIT   1016 AT TIME STEP      9, STRESS PERIOD     13
 UBDSV1 SAVING           STO-SY ON UNIT   1016 AT TIME STEP      9, STRESS PERIOD     13
 UBDSV1 SAVING     FLOW-JA-FACE ON UNIT   1016 AT TIME STEP      9, STRESS PERIOD     13
 UBDSV06 SAVING              RCH IN MODEL TEST_TRANS       PACKAGE TEST_TRANS      CONNECTED TO MODEL TEST_TRANS       PACKAGE RCHA             ON UNIT   1016 AT TIME STEP      9, STRESS PERIOD     13
 UBDSV06 SAVING              CHD IN MODEL TEST_TRANS       PACKAGE TEST_TRANS      CONNECTED TO MODEL TEST_TRANS       PACKAGE CHD              ON UNIT   1016 AT TIME STEP      9, STRESS PERIOD     13

 HEAD WILL BE SAVED ON UNIT 1017 AT END OF TIME STEP    9, STRESS PERIOD   13
 UBDSV1 SAVING           STO-SS ON UNIT   1016 AT TIME STEP     10, STRESS PERIOD     13
 UBDSV1 SAVING           STO-SY ON UNIT   1016 AT TIME STEP     10, STRESS PERIOD     13
 UBDSV1 SAVING     FLOW-JA-FACE ON UNIT   1016 AT TIME STEP     10, STRESS PERIOD     13
 UBDSV06 SAVING              RCH IN MODEL TEST_TRANS       PACKAGE TEST_TRANS      CONNECTED TO MODEL TEST_TRANS       PACKAGE RCHA             ON UNIT   1016 AT TIME STEP     10, STRESS PERIOD     13
 UBDSV06 SAVING              CHD IN MODEL TEST_TRANS       PACKAGE TEST_TRANS      CONNECTED TO MODEL TEST_TRANS       PACKAGE CHD              ON UNIT   1016 AT TIME STEP     10, STRESS PERIOD     13
1
  HEAD IN LAYER   1 AT END OF TIME STEP  10 IN STRESS PERIOD   13
  ---------------------------------------------------------------------------

            1           2           3           4           5           6           7           8           9          10
           11          12          13          14          15          16          17          18          19          20
           21          22          23          24          25          26          27          28          29          30
 ........................................................................................................................
   1    28.01       28.00       27.99       27.98       27.95       27.93       27.90       27.86       27.81       27.76    
        27.71       27.65       27.58       27.50       27.42       27.33       27.23       27.12       27.00       26.87    
        26.73       26.58       26.41       26.22       26.02       25.78       25.52       25.21       24.83       24.32    
   2    28.01       28.00       27.99       27.98       27.95       27.93       27.90       27.86       27.81       27.76    
        27.71       27.65       27.58       27.50       27.42       27.33       27.23       27.12       27.00       26.87    
        26.73       26.58       26.41       26.22       26.02       25.78       25.52       25.21       24.83       24.32    
   3    28.01       28.00       27.99       27.98       27.95       27.93       27.90       27.86       27.81       27.76    
        27.71       27.65       27.58       27.50       27.42       27.33       27.23       27.12       27.00       26.87    
        26.73       26.58       26.41       26.22       26.02       25.78       25.52       25.21       24.83       24.32    
   4    28.01       28.00       27.99       27.98       27.95       27.93       27.90       27.86       27.81       27.76    
        27.71       27.65       27.58       27.50       27.42       27.33       27.23       27.12       27.00       26.87    
        26.73       26.58       26.41       26.22       26.02       25.78       25.52       25.21       24.83       24.32    
   5    28.01       28.00       27.99       27.98       27.95       27.93       27.90       27.86       27.81       27.76    
        27.71       27.65       27.58       27.50       27.42       27.33       27.23       27.12       27.00       26.87    
        26.73       26.58       26.41       26.22       26.02       25.78       25.52       25.21       24.83       24.32    
   6    28.01       28.00       27.99       27.98       27.95       27.93       27.90       27.86       27.81       27.76    
        27.71       27.65       27.58       27.50       27.42       27.33       27.23       27.12       27.00       26.87    
        26.73       26.58       26.41       26.22       26.02       25.78       25.52       25.21       24.83       24.32    
   7    28.01       28.00       27.99       27.98       27.95       27.93       27.90       27.86       27.81       27.76    
        27.71       27.65       27.58       27.50       27.42       27.33       27.23       27.12       27.00       26.87    
        26.73       26.58       26.41       26.22       26.02       25.78       25.52       25.21       24.83       24.32    
   8    28.01       28.00       27.99       27.98       27.95       27.93       27.90       27.86       27.81       27.76    
        27.71       27.65       27.58       27.50       27.42       27.33       27.23       27.12       27.00       26.87    
        26.73       26.58       26.41       26.22       26.02       25.78       25.52       25.21       24.83       24.32    
   9    28.01       28.00       27.99       27.98       27.95       27.93       27.90       27.86       27.81       27.76    
        27.71       27.65       27.58       27.50       27.42       27.33       27.23       27.12       27.00       26.87    
        26.73       26.58       26.41       26.22       26.02       25.78       25.52       25.21       24.83       24.32    
  10    28.01       28.00       27.99       27.98       27.95       27.93       27.90       27.86       27.81       27.76    
        27.71       27.65       27.58       27.50       27.42       27.33       27.23       27.12       27.00       26.87    
        26.73       26.58       26.41       26.22       26.02       25.78       25.52       25.21       24.83       24.32    
  11    28.01       28.00       27.99       27.98       27.95       27.93       27.90       27.86       27.81       27.76    
        27.71       27.65       27.58       27.50       27.42       27.33       27.23       27.12       27.00       26.87    
        26.73       26.58       26.41       26.22       26.02       25.78       25.52       25.21       24.83       24.32    
  12    28.01       28.00       27.99       27.98       27.95       27.93       27.90       27.86       27.81       27.76    
        27.71       27.65       27.58       27.50       27.42       27.33       27.23       27.12       27.00       26.87    
        26.73       26.58       26.41       26.22       26.02       25.78       25.52       25.21       24.83       24.32    
  13    28.01       28.00       27.99       27.98       27.95       27.93       27.90       27.86       27.81       27.76    
        27.71       27.65       27.58       27.50       27.42       27.33       27.23       27.12       27.00       26.87    
        26.73       26.58       26.41       26.22       26.02       25.78       25.52       25.21       24.83       24.32    
  14    28.01       28.00       27.99       27.98       27.95       27.93       27.90       27.86       27.81       27.76    
        27.71       27.65       27.58       27.50       27.42       27.33       27.23       27.12       27.00       26.87    
        26.73       26.58       26.41       26.22       26.02       25.78       25.52       25.21       24.83       24.32    
  15    28.01       28.00       27.99       27.98       27.95       27.93       27.90       27.86       27.81       27.76    
        27.71       27.65       27.58       27.50       27.42       27.33       27.23       27.12       27.00       26.87    
        26.73       26.58       26.41       26.22       26.02       25.78       25.52       25.21       24.83       24.32    
  16    28.01       28.00       27.99       27.98       27.95       27.93       27.90       27.86       27.81       27.76    
        27.71       27.65       27.58       27.50       27.42       27.33       27.23       27.12       27.00       26.87    
        26.73       26.58       26.41       26.22       26.02       25.78       25.52       25.21       24.83       24.32    
  17    28.01       28.00       27.99       27.98       27.95       27.93       27.90       27.86       27.81       27.76    
        27.71       27.65       27.58       27.50       27.42       27.33       27.23       27.12       27.00       26.87    
        26.73       26.58       26.41       26.22       26.02       25.78       25.52       25.21       24.83       24.32    
  18    28.01       28.00       27.99       27.98       27.95       27.93       27.90       27.86       27.81       27.76    
        27.71       27.65       27.58       27.50       27.42       27.33       27.23       27.12       27.00       26.87    
        26.73       26.58       26.41       26.22       26.02       25.78       25.52       25.21       24.83       24.32    
  19    28.01       28.00       27.99       27.98       27.95       27.93       27.90       27.86       27.81       27.76    
        27.71       27.65       27.58       27.50       27.42       27.33       27.23       27.12       27.00       26.87    
        26.73       26.58       26.41       26.22       26.02       25.78       25.52       25.21       24.83       24.32    
  20    28.01       28.00       27.99       27.98       27.95       27.93       27.90       27.86       27.81       27.76    
        27.71       27.65       27.58       27.50       27.42       27.33       27.23       27.12       27.00       26.87    
        26.73       26.58       26.41       26.22       26.02       25.78       25.52       25.21       24.83       24.32    
  21    28.01       28.00       27.99       27.98       27.95       27.93       27.90       27.86       27.81       27.76    
        27.71       27.65       27.58       27.50       27.42       27.33       27.23       27.12       27.00       26.87    
        26.73       26.58       26.41       26.22       26.02       25.78       25.52       25.21       24.83       24.32    
  22    28.01       28.00       27.99       27.98       27.95       27.93       27.90       27.86       27.81       27.76    
        27.71       27.65       27.58       27.50       27.42       27.33       27.23       27.12       27.00       26.87    
        26.73       26.58       26.41       26.22       26.02       25.78       25.52       25.21       24.83       24.32    
  23    28.01       28.00       27.99       27.98       27.95       27.93       27.90       27.86       27.81       27.76    
        27.71       27.65       27.58       27.50       27.42       27.33       27.23       27.12       27.00       26.87    
        26.73       26.58       26.41       26.22       26.02       25.78       25.52       25.21       24.83       24.32    
  24    28.01       28.00       27.99       27.98       27.95       27.93       27.90       27.86       27.81       27.76    
        27.71       27.65       27.58       27.50       27.42       27.33       27.23       27.12       27.00       26.87    
        26.73       26.58       26.41       26.22       26.02       25.78       25.52       25.21       24.83       24.32    
  25    28.01       28.00       27.99       27.98       27.95       27.93       27.90       27.86       27.81       27.76    
        27.71       27.65       27.58       27.50       27.42       27.33       27.23       27.12       27.00       26.87    
        26.73       26.58       26.41       26.22       26.02       25.78       25.52       25.21       24.83       24.32    
  26    28.01       28.00       27.99       27.98       27.95       27.93       27.90       27.86       27.81       27.76    
        27.71       27.65       27.58       27.50       27.42       27.33       27.23       27.12       27.00       26.87    
        26.73       26.58       26.41       26.22       26.02       25.78       25.52       25.21       24.83       24.32    
  27    28.01       28.00       27.99       27.98       27.95       27.93       27.90       27.86       27.81       27.76    
        27.71       27.65       27.58       27.50       27.42       27.33       27.23       27.12       27.00       26.87    
        26.73       26.58       26.41       26.22       26.02       25.78       25.52       25.21       24.83       24.32    
  28    28.01       28.00       27.99       27.98       27.95       27.93       27.90       27.86       27.81       27.76    
        27.71       27.65       27.58       27.50       27.42       27.33       27.23       27.12       27.00       26.87    
        26.73       26.58       26.41       26.22       26.02       25.78       25.52       25.21       24.83       24.32    
  29    28.01       28.00       27.99       27.98       27.95       27.93       27.90       27.86       27.81       27.76    
        27.71       27.65       27.58       27.50       27.42       27.33       27.23       27.12       27.00       26.87    
        26.73       26.58       26.41       26.22       26.02       25.78       25.52       25.21       24.83       24.32    
  30    28.01       28.00       27.99       27.98       27.95       27.93       27.90       27.86       27.81       27.76    
        27.71       27.65       27.58       27.50       27.42       27.33       27.23       27.12       27.00       26.87    
        26.73       26.58       26.41       26.22       26.02       25.78       25.52       25.21       24.83       24.32    

 HEAD WILL BE SAVED ON UNIT 1017 AT END OF TIME STEP   10, STRESS PERIOD   13


  VOLUME BUDGET FOR ENTIRE MODEL AT END OF TIME STEP   10, STRESS PERIOD  13
  ---------------------------------------------------------------------------------------------------

     CUMULATIVE VOLUME      L**3       RATES FOR THIS TIME STEP      L**3/T          PACKAGE NAME    
     ------------------                 ------------------------                     ----------------

           IN:                                      IN:
           ---                                      ---
              STO-SS =          23.1669                STO-SS =           0.0000     STORAGE         
              STO-SY =       14839.5172                STO-SY =           0.0000     STORAGE         
                 RCH =       59946.6036                   RCH =         238.3565     RCHA            
                 CHD =        1052.4133                   CHD =           0.0000     CHD             

            TOTAL IN =       75861.7010              TOTAL IN =         238.3565

          OUT:                                     OUT:
          ----                                     ----
              STO-SS =          14.1573                STO-SS =       5.4371E-02     STORAGE         
              STO-SY =        9223.7787                STO-SY =          34.5110     STORAGE         
                 RCH =           0.0000                   RCH =           0.0000     RCHA            
                 CHD =       66623.6066                   CHD =         203.7959     CHD             

           TOTAL OUT =       75861.5427             TOTAL OUT =         238.3613

            IN - OUT =           0.1583              IN - OUT =      -4.7670E-03

 PERCENT DISCREPANCY =           0.00     PERCENT DISCREPANCY =          -0.00




         TIME SUMMARY AT END OF TIME STEP   10 IN STRESS PERIOD   13
                    SECONDS     MINUTES      HOURS       DAYS        YEARS
                    -----------------------------------------------------------
   TIME STEP LENGTH 2.59200E+05  4320.0      72.000      3.0000     8.21355E-03
 STRESS PERIOD TIME 2.59200E+06  43200.      720.00      30.000     8.21355E-02
         TOTAL TIME 3.11904E+07 5.19840E+05  8664.0      361.00     0.98836    

 OUTPUT CONTROL FOR STRESS PERIOD 14 IS REPEATED USING SETTINGS FROM A PREVIOUS STRESS PERIOD.


 STRESS PERIOD 14 IS TRANSIENT


                 RECHARGE =  0.3287670E-02
 UBDSV1 SAVING           STO-SS ON UNIT   1016 AT TIME STEP      1, STRESS PERIOD     14
 UBDSV1 SAVING           STO-SY ON UNIT   1016 AT TIME STEP      1, STRESS PERIOD     14
 UBDSV1 SAVING     FLOW-JA-FACE ON UNIT   1016 AT TIME STEP      1, STRESS PERIOD     14
 UBDSV06 SAVING              RCH IN MODEL TEST_TRANS       PACKAGE TEST_TRANS      CONNECTED TO MODEL TEST_TRANS       PACKAGE RCHA             ON UNIT   1016 AT TIME STEP      1, STRESS PERIOD     14
 UBDSV06 SAVING              CHD IN MODEL TEST_TRANS       PACKAGE TEST_TRANS      CONNECTED TO MODEL TEST_TRANS       PACKAGE CHD              ON UNIT   1016 AT TIME STEP      1, STRESS PERIOD     14
1
  HEAD IN LAYER   1 AT END OF TIME STEP   1 IN STRESS PERIOD   14
  ---------------------------------------------------------------------------

            1           2           3           4           5           6           7           8           9          10
           11          12          13          14          15          16          17          18          19          20
           21          22          23          24          25          26          27          28          29          30
 ........................................................................................................................
   1    28.02       28.02       28.01       27.99       27.97       27.94       27.91       27.87       27.83       27.78    
        27.72       27.66       27.59       27.51       27.43       27.34       27.24       27.13       27.01       26.88    
        26.74       26.59       26.42       26.24       26.03       25.80       25.55       25.25       24.91       24.49    
   2    28.02       28.02       28.01       27.99       27.97       27.94       27.91       27.87       27.83       27.78    
        27.72       27.66       27.59       27.51       27.43       27.34       27.24       27.13       27.01       26.88    
        26.74       26.59       26.42       26.24       26.03       25.80       25.55       25.25       24.91       24.49    
   3    28.02       28.02       28.01       27.99       27.97       27.94       27.91       27.87       27.83       27.78    
        27.72       27.66       27.59       27.51       27.43       27.34       27.24       27.13       27.01       26.88    
        26.74       26.59       26.42       26.24       26.03       25.80       25.55       25.25       24.91       24.49    
   4    28.02       28.02       28.01       27.99       27.97       27.94       27.91       27.87       27.83       27.78    
        27.72       27.66       27.59       27.51       27.43       27.34       27.24       27.13       27.01       26.88    
        26.74       26.59       26.42       26.24       26.03       25.80       25.55       25.25       24.91       24.49    
   5    28.02       28.02       28.01       27.99       27.97       27.94       27.91       27.87       27.83       27.78    
        27.72       27.66       27.59       27.51       27.43       27.34       27.24       27.13       27.01       26.88    
        26.74       26.59       26.42       26.24       26.03       25.80       25.55       25.25       24.91       24.49    
   6    28.02       28.02       28.01       27.99       27.97       27.94       27.91       27.87       27.83       27.78    
        27.72       27.66       27.59       27.51       27.43       27.34       27.24       27.13       27.01       26.88    
        26.74       26.59       26.42       26.24       26.03       25.80       25.55       25.25       24.91       24.49    
   7    28.02       28.02       28.01       27.99       27.97       27.94       27.91       27.87       27.83       27.78    
        27.72       27.66       27.59       27.51       27.43       27.34       27.24       27.13       27.01       26.88    
        26.74       26.59       26.42       26.24       26.03       25.80       25.55       25.25       24.91       24.49    
   8    28.02       28.02       28.01       27.99       27.97       27.94       27.91       27.87       27.83       27.78    
        27.72       27.66       27.59       27.51       27.43       27.34       27.24       27.13       27.01       26.88    
        26.74       26.59       26.42       26.24       26.03       25.80       25.55       25.25       24.91       24.49    
   9    28.02       28.02       28.01       27.99       27.97       27.94       27.91       27.87       27.83       27.78    
        27.72       27.66       27.59       27.51       27.43       27.34       27.24       27.13       27.01       26.88    
        26.74       26.59       26.42       26.24       26.03       25.80       25.55       25.25       24.91       24.49    
  10    28.02       28.02       28.01       27.99       27.97       27.94       27.91       27.87       27.83       27.78    
        27.72       27.66       27.59       27.51       27.43       27.34       27.24       27.13       27.01       26.88    
        26.74       26.59       26.42       26.24       26.03       25.80       25.55       25.25       24.91       24.49    
  11    28.02       28.02       28.01       27.99       27.97       27.94       27.91       27.87       27.83       27.78    
        27.72       27.66       27.59       27.51       27.43       27.34       27.24       27.13       27.01       26.88    
        26.74       26.59       26.42       26.24       26.03       25.80       25.55       25.25       24.91       24.49    
  12    28.02       28.02       28.01       27.99       27.97       27.94       27.91       27.87       27.83       27.78    
        27.72       27.66       27.59       27.51       27.43       27.34       27.24       27.13       27.01       26.88    
        26.74       26.59       26.42       26.24       26.03       25.80       25.55       25.25       24.91       24.49    
  13    28.02       28.02       28.01       27.99       27.97       27.94       27.91       27.87       27.83       27.78    
        27.72       27.66       27.59       27.51       27.43       27.34       27.24       27.13       27.01       26.88    
        26.74       26.59       26.42       26.24       26.03       25.80       25.55       25.25       24.91       24.49    
  14    28.02       28.02       28.01       27.99       27.97       27.94       27.91       27.87       27.83       27.78    
        27.72       27.66       27.59       27.51       27.43       27.34       27.24       27.13       27.01       26.88    
        26.74       26.59       26.42       26.24       26.03       25.80       25.55       25.25       24.91       24.49    
  15    28.02       28.02       28.01       27.99       27.97       27.94       27.91       27.87       27.83       27.78    
        27.72       27.66       27.59       27.51       27.43       27.34       27.24       27.13       27.01       26.88    
        26.74       26.59       26.42       26.24       26.03       25.80       25.55       25.25       24.91       24.49    
  16    28.02       28.02       28.01       27.99       27.97       27.94       27.91       27.87       27.83       27.78    
        27.72       27.66       27.59       27.51       27.43       27.34       27.24       27.13       27.01       26.88    
        26.74       26.59       26.42       26.24       26.03       25.80       25.55       25.25       24.91       24.49    
  17    28.02       28.02       28.01       27.99       27.97       27.94       27.91       27.87       27.83       27.78    
        27.72       27.66       27.59       27.51       27.43       27.34       27.24       27.13       27.01       26.88    
        26.74       26.59       26.42       26.24       26.03       25.80       25.55       25.25       24.91       24.49    
  18    28.02       28.02       28.01       27.99       27.97       27.94       27.91       27.87       27.83       27.78    
        27.72       27.66       27.59       27.51       27.43       27.34       27.24       27.13       27.01       26.88    
        26.74       26.59       26.42       26.24       26.03       25.80       25.55       25.25       24.91       24.49    
  19    28.02       28.02       28.01       27.99       27.97       27.94       27.91       27.87       27.83       27.78    
        27.72       27.66       27.59       27.51       27.43       27.34       27.24       27.13       27.01       26.88    
        26.74       26.59       26.42       26.24       26.03       25.80       25.55       25.25       24.91       24.49    
  20    28.02       28.02       28.01       27.99       27.97       27.94       27.91       27.87       27.83       27.78    
        27.72       27.66       27.59       27.51       27.43       27.34       27.24       27.13       27.01       26.88    
        26.74       26.59       26.42       26.24       26.03       25.80       25.55       25.25       24.91       24.49    
  21    28.02       28.02       28.01       27.99       27.97       27.94       27.91       27.87       27.83       27.78    
        27.72       27.66       27.59       27.51       27.43       27.34       27.24       27.13       27.01       26.88    
        26.74       26.59       26.42       26.24       26.03       25.80       25.55       25.25       24.91       24.49    
  22    28.02       28.02       28.01       27.99       27.97       27.94       27.91       27.87       27.83       27.78    
        27.72       27.66       27.59       27.51       27.43       27.34       27.24       27.13       27.01       26.88    
        26.74       26.59       26.42       26.24       26.03       25.80       25.55       25.25       24.91       24.49    
  23    28.02       28.02       28.01       27.99       27.97       27.94       27.91       27.87       27.83       27.78    
        27.72       27.66       27.59       27.51       27.43       27.34       27.24       27.13       27.01       26.88    
        26.74       26.59       26.42       26.24       26.03       25.80       25.55       25.25       24.91       24.49    
  24    28.02       28.02       28.01       27.99       27.97       27.94       27.91       27.87       27.83       27.78    
        27.72       27.66       27.59       27.51       27.43       27.34       27.24       27.13       27.01       26.88    
        26.74       26.59       26.42       26.24       26.03       25.80       25.55       25.25       24.91       24.49    
  25    28.02       28.02       28.01       27.99       27.97       27.94       27.91       27.87       27.83       27.78    
        27.72       27.66       27.59       27.51       27.43       27.34       27.24       27.13       27.01       26.88    
        26.74       26.59       26.42       26.24       26.03       25.80       25.55       25.25       24.91       24.49    
  26    28.02       28.02       28.01       27.99       27.97       27.94       27.91       27.87       27.83       27.78    
        27.72       27.66       27.59       27.51       27.43       27.34       27.24       27.13       27.01       26.88    
        26.74       26.59       26.42       26.24       26.03       25.80       25.55       25.25       24.91       24.49    
  27    28.02       28.02       28.01       27.99       27.97       27.94       27.91       27.87       27.83       27.78    
        27.72       27.66       27.59       27.51       27.43       27.34       27.24       27.13       27.01       26.88    
        26.74       26.59       26.42       26.24       26.03       25.80       25.55       25.25       24.91       24.49    
  28    28.02       28.02       28.01       27.99       27.97       27.94       27.91       27.87       27.83       27.78    
        27.72       27.66       27.59       27.51       27.43       27.34       27.24       27.13       27.01       26.88    
        26.74       26.59       26.42       26.24       26.03       25.80       25.55       25.25       24.91       24.49    
  29    28.02       28.02       28.01       27.99       27.97       27.94       27.91       27.87       27.83       27.78    
        27.72       27.66       27.59       27.51       27.43       27.34       27.24       27.13       27.01       26.88    
        26.74       26.59       26.42       26.24       26.03       25.80       25.55       25.25       24.91       24.49    
  30    28.02       28.02       28.01       27.99       27.97       27.94       27.91       27.87       27.83       27.78    
        27.72       27.66       27.59       27.51       27.43       27.34       27.24       27.13       27.01       26.88    
        26.74       26.59       26.42       26.24       26.03       25.80       25.55       25.25       24.91       24.49    

 HEAD WILL BE SAVED ON UNIT 1017 AT END OF TIME STEP    1, STRESS PERIOD   14



         TIME SUMMARY AT END OF TIME STEP    1 IN STRESS PERIOD   14
                    SECONDS     MINUTES      HOURS       DAYS        YEARS
                    -----------------------------------------------------------
   TIME STEP LENGTH 2.59200E+05  4320.0      72.000      3.0000     8.21355E-03
 STRESS PERIOD TIME 2.59200E+05  4320.0      72.000      3.0000     8.21355E-03
         TOTAL TIME 3.14496E+07 5.24160E+05  8736.0      364.00     0.99658    
 UBDSV1 SAVING           STO-SS ON UNIT   1016 AT TIME STEP      2, STRESS PERIOD     14
 UBDSV1 SAVING           STO-SY ON UNIT   1016 AT TIME STEP      2, STRESS PERIOD     14
 UBDSV1 SAVING     FLOW-JA-FACE ON UNIT   1016 AT TIME STEP      2, STRESS PERIOD     14
 UBDSV06 SAVING              RCH IN MODEL TEST_TRANS       PACKAGE TEST_TRANS      CONNECTED TO MODEL TEST_TRANS       PACKAGE RCHA             ON UNIT   1016 AT TIME STEP      2, STRESS PERIOD     14
 UBDSV06 SAVING              CHD IN MODEL TEST_TRANS       PACKAGE TEST_TRANS      CONNECTED TO MODEL TEST_TRANS       PACKAGE CHD              ON UNIT   1016 AT TIME STEP      2, STRESS PERIOD     14

 HEAD WILL BE SAVED ON UNIT 1017 AT END OF TIME STEP    2, STRESS PERIOD   14
 UBDSV1 SAVING           STO-SS ON UNIT   1016 AT TIME STEP      3, STRESS PERIOD     14
 UBDSV1 SAVING           STO-SY ON UNIT   1016 AT TIME STEP      3, STRESS PERIOD     14
 UBDSV1 SAVING     FLOW-JA-FACE ON UNIT   1016 AT TIME STEP      3, STRESS PERIOD     14
 UBDSV06 SAVING              RCH IN MODEL TEST_TRANS       PACKAGE TEST_TRANS      CONNECTED TO MODEL TEST_TRANS       PACKAGE RCHA             ON UNIT   1016 AT TIME STEP      3, STRESS PERIOD     14
 UBDSV06 SAVING              CHD IN MODEL TEST_TRANS       PACKAGE TEST_TRANS      CONNECTED TO MODEL TEST_TRANS       PACKAGE CHD              ON UNIT   1016 AT TIME STEP      3, STRESS PERIOD     14

 HEAD WILL BE SAVED ON UNIT 1017 AT END OF TIME STEP    3, STRESS PERIOD   14
 UBDSV1 SAVING           STO-SS ON UNIT   1016 AT TIME STEP      4, STRESS PERIOD     14
 UBDSV1 SAVING           STO-SY ON UNIT   1016 AT TIME STEP      4, STRESS PERIOD     14
 UBDSV1 SAVING     FLOW-JA-FACE ON UNIT   1016 AT TIME STEP      4, STRESS PERIOD     14
 UBDSV06 SAVING              RCH IN MODEL TEST_TRANS       PACKAGE TEST_TRANS      CONNECTED TO MODEL TEST_TRANS       PACKAGE RCHA             ON UNIT   1016 AT TIME STEP      4, STRESS PERIOD     14
 UBDSV06 SAVING              CHD IN MODEL TEST_TRANS       PACKAGE TEST_TRANS      CONNECTED TO MODEL TEST_TRANS       PACKAGE CHD              ON UNIT   1016 AT TIME STEP      4, STRESS PERIOD     14

 HEAD WILL BE SAVED ON UNIT 1017 AT END OF TIME STEP    4, STRESS PERIOD   14
 UBDSV1 SAVING           STO-SS ON UNIT   1016 AT TIME STEP      5, STRESS PERIOD     14
 UBDSV1 SAVING           STO-SY ON UNIT   1016 AT TIME STEP      5, STRESS PERIOD     14
 UBDSV1 SAVING     FLOW-JA-FACE ON UNIT   1016 AT TIME STEP      5, STRESS PERIOD     14
 UBDSV06 SAVING              RCH IN MODEL TEST_TRANS       PACKAGE TEST_TRANS      CONNECTED TO MODEL TEST_TRANS       PACKAGE RCHA             ON UNIT   1016 AT TIME STEP      5, STRESS PERIOD     14
 UBDSV06 SAVING              CHD IN MODEL TEST_TRANS       PACKAGE TEST_TRANS      CONNECTED TO MODEL TEST_TRANS       PACKAGE CHD              ON UNIT   1016 AT TIME STEP      5, STRESS PERIOD     14

 HEAD WILL BE SAVED ON UNIT 1017 AT END OF TIME STEP    5, STRESS PERIOD   14
 UBDSV1 SAVING           STO-SS ON UNIT   1016 AT TIME STEP      6, STRESS PERIOD     14
 UBDSV1 SAVING           STO-SY ON UNIT   1016 AT TIME STEP      6, STRESS PERIOD     14
 UBDSV1 SAVING     FLOW-JA-FACE ON UNIT   1016 AT TIME STEP      6, STRESS PERIOD     14
 UBDSV06 SAVING              RCH IN MODEL TEST_TRANS       PACKAGE TEST_TRANS      CONNECTED TO MODEL TEST_TRANS       PACKAGE RCHA             ON UNIT   1016 AT TIME STEP      6, STRESS PERIOD     14
 UBDSV06 SAVING              CHD IN MODEL TEST_TRANS       PACKAGE TEST_TRANS      CONNECTED TO MODEL TEST_TRANS       PACKAGE CHD              ON UNIT   1016 AT TIME STEP      6, STRESS PERIOD     14

 HEAD WILL BE SAVED ON UNIT 1017 AT END OF TIME STEP    6, STRESS PERIOD   14
 UBDSV1 SAVING           STO-SS ON UNIT   1016 AT TIME STEP      7, STRESS PERIOD     14
 UBDSV1 SAVING           STO-SY ON UNIT   1016 AT TIME STEP      7, STRESS PERIOD     14
 UBDSV1 SAVING     FLOW-JA-FACE ON UNIT   1016 AT TIME STEP      7, STRESS PERIOD     14
 UBDSV06 SAVING              RCH IN MODEL TEST_TRANS       PACKAGE TEST_TRANS      CONNECTED TO MODEL TEST_TRANS       PACKAGE RCHA             ON UNIT   1016 AT TIME STEP      7, STRESS PERIOD     14
 UBDSV06 SAVING              CHD IN MODEL TEST_TRANS       PACKAGE TEST_TRANS      CONNECTED TO MODEL TEST_TRANS       PACKAGE CHD              ON UNIT   1016 AT TIME STEP      7, STRESS PERIOD     14

 HEAD WILL BE SAVED ON UNIT 1017 AT END OF TIME STEP    7, STRESS PERIOD   14
 UBDSV1 SAVING           STO-SS ON UNIT   1016 AT TIME STEP      8, STRESS PERIOD     14
 UBDSV1 SAVING           STO-SY ON UNIT   1016 AT TIME STEP      8, STRESS PERIOD     14
 UBDSV1 SAVING     FLOW-JA-FACE ON UNIT   1016 AT TIME STEP      8, STRESS PERIOD     14
 UBDSV06 SAVING              RCH IN MODEL TEST_TRANS       PACKAGE TEST_TRANS      CONNECTED TO MODEL TEST_TRANS       PACKAGE RCHA             ON UNIT   1016 AT TIME STEP      8, STRESS PERIOD     14
 UBDSV06 SAVING              CHD IN MODEL TEST_TRANS       PACKAGE TEST_TRANS      CONNECTED TO MODEL TEST_TRANS       PACKAGE CHD              ON UNIT   1016 AT TIME STEP      8, STRESS PERIOD     14

 HEAD WILL BE SAVED ON UNIT 1017 AT END OF TIME STEP    8, STRESS PERIOD   14
 UBDSV1 SAVING           STO-SS ON UNIT   1016 AT TIME STEP      9, STRESS PERIOD     14
 UBDSV1 SAVING           STO-SY ON UNIT   1016 AT TIME STEP      9, STRESS PERIOD     14
 UBDSV1 SAVING     FLOW-JA-FACE ON UNIT   1016 AT TIME STEP      9, STRESS PERIOD     14
 UBDSV06 SAVING              RCH IN MODEL TEST_TRANS       PACKAGE TEST_TRANS      CONNECTED TO MODEL TEST_TRANS       PACKAGE RCHA             ON UNIT   1016 AT TIME STEP      9, STRESS PERIOD     14
 UBDSV06 SAVING              CHD IN MODEL TEST_TRANS       PACKAGE TEST_TRANS      CONNECTED TO MODEL TEST_TRANS       PACKAGE CHD              ON UNIT   1016 AT TIME STEP      9, STRESS PERIOD     14

 HEAD WILL BE SAVED ON UNIT 1017 AT END OF TIME STEP    9, STRESS PERIOD   14
 UBDSV1 SAVING           STO-SS ON UNIT   1016 AT TIME STEP     10, STRESS PERIOD     14
 UBDSV1 SAVING           STO-SY ON UNIT   1016 AT TIME STEP     10, STRESS PERIOD     14
 UBDSV1 SAVING     FLOW-JA-FACE ON UNIT   1016 AT TIME STEP     10, STRESS PERIOD     14
 UBDSV06 SAVING              RCH IN MODEL TEST_TRANS       PACKAGE TEST_TRANS      CONNECTED TO MODEL TEST_TRANS       PACKAGE RCHA             ON UNIT   1016 AT TIME STEP     10, STRESS PERIOD     14
 UBDSV06 SAVING              CHD IN MODEL TEST_TRANS       PACKAGE TEST_TRANS      CONNECTED TO MODEL TEST_TRANS       PACKAGE CHD              ON UNIT   1016 AT TIME STEP     10, STRESS PERIOD     14
1
  HEAD IN LAYER   1 AT END OF TIME STEP  10 IN STRESS PERIOD   14
  ---------------------------------------------------------------------------

            1           2           3           4           5           6           7           8           9          10
           11          12          13          14          15          16          17          18          19          20
           21          22          23          24          25          26          27          28          29          30
 ........................................................................................................................
   1    28.15       28.15       28.13       28.12       28.10       28.07       28.04       28.00       27.96       27.91    
        27.85       27.79       27.72       27.64       27.56       27.46       27.37       27.26       27.14       27.01    
        26.87       26.71       26.55       26.36       26.15       25.92       25.66       25.35       24.98       24.49    
   2    28.15       28.15       28.13       28.12       28.10       28.07       28.04       28.00       27.96       27.91    
        27.85       27.79       27.72       27.64       27.56       27.46       27.37       27.26       27.14       27.01    
        26.87       26.71       26.55       26.36       26.15       25.92       25.66       25.35       24.98       24.49    
   3    28.15       28.15       28.13       28.12       28.10       28.07       28.04       28.00       27.96       27.91    
        27.85       27.79       27.72       27.64       27.56       27.46       27.37       27.26       27.14       27.01    
        26.87       26.71       26.55       26.36       26.15       25.92       25.66       25.35       24.98       24.49    
   4    28.15       28.15       28.13       28.12       28.10       28.07       28.04       28.00       27.96       27.91    
        27.85       27.79       27.72       27.64       27.56       27.46       27.37       27.26       27.14       27.01    
        26.87       26.71       26.55       26.36       26.15       25.92       25.66       25.35       24.98       24.49    
   5    28.15       28.15       28.13       28.12       28.10       28.07       28.04       28.00       27.96       27.91    
        27.85       27.79       27.72       27.64       27.56       27.46       27.37       27.26       27.14       27.01    
        26.87       26.71       26.55       26.36       26.15       25.92       25.66       25.35       24.98       24.49    
   6    28.15       28.15       28.13       28.12       28.10       28.07       28.04       28.00       27.96       27.91    
        27.85       27.79       27.72       27.64       27.56       27.46       27.37       27.26       27.14       27.01    
        26.87       26.71       26.55       26.36       26.15       25.92       25.66       25.35       24.98       24.49    
   7    28.15       28.15       28.13       28.12       28.10       28.07       28.04       28.00       27.96       27.91    
        27.85       27.79       27.72       27.64       27.56       27.46       27.37       27.26       27.14       27.01    
        26.87       26.71       26.55       26.36       26.15       25.92       25.66       25.35       24.98       24.49    
   8    28.15       28.15       28.13       28.12       28.10       28.07       28.04       28.00       27.96       27.91    
        27.85       27.79       27.72       27.64       27.56       27.46       27.37       27.26       27.14       27.01    
        26.87       26.71       26.55       26.36       26.15       25.92       25.66       25.35       24.98       24.49    
   9    28.15       28.15       28.13       28.12       28.10       28.07       28.04       28.00       27.96       27.91    
        27.85       27.79       27.72       27.64       27.56       27.46       27.37       27.26       27.14       27.01    
        26.87       26.71       26.55       26.36       26.15       25.92       25.66       25.35       24.98       24.49    
  10    28.15       28.15       28.13       28.12       28.10       28.07       28.04       28.00       27.96       27.91    
        27.85       27.79       27.72       27.64       27.56       27.46       27.37       27.26       27.14       27.01    
        26.87       26.71       26.55       26.36       26.15       25.92       25.66       25.35       24.98       24.49    
  11    28.15       28.15       28.13       28.12       28.10       28.07       28.04       28.00       27.96       27.91    
        27.85       27.79       27.72       27.64       27.56       27.46       27.37       27.26       27.14       27.01    
        26.87       26.71       26.55       26.36       26.15       25.92       25.66       25.35       24.98       24.49    
  12    28.15       28.15       28.13       28.12       28.10       28.07       28.04       28.00       27.96       27.91    
        27.85       27.79       27.72       27.64       27.56       27.46       27.37       27.26       27.14       27.01    
        26.87       26.71       26.55       26.36       26.15       25.92       25.66       25.35       24.98       24.49    
  13    28.15       28.15       28.13       28.12       28.10       28.07       28.04       28.00       27.96       27.91    
        27.85       27.79       27.72       27.64       27.56       27.46       27.37       27.26       27.14       27.01    
        26.87       26.71       26.55       26.36       26.15       25.92       25.66       25.35       24.98       24.49    
  14    28.15       28.15       28.13       28.12       28.10       28.07       28.04       28.00       27.96       27.91    
        27.85       27.79       27.72       27.64       27.56       27.46       27.37       27.26       27.14       27.01    
        26.87       26.71       26.55       26.36       26.15       25.92       25.66       25.35       24.98       24.49    
  15    28.15       28.15       28.13       28.12       28.10       28.07       28.04       28.00       27.96       27.91    
        27.85       27.79       27.72       27.64       27.56       27.46       27.37       27.26       27.14       27.01    
        26.87       26.71       26.55       26.36       26.15       25.92       25.66       25.35       24.98       24.49    
  16    28.15       28.15       28.13       28.12       28.10       28.07       28.04       28.00       27.96       27.91    
        27.85       27.79       27.72       27.64       27.56       27.46       27.37       27.26       27.14       27.01    
        26.87       26.71       26.55       26.36       26.15       25.92       25.66       25.35       24.98       24.49    
  17    28.15       28.15       28.13       28.12       28.10       28.07       28.04       28.00       27.96       27.91    
        27.85       27.79       27.72       27.64       27.56       27.46       27.37       27.26       27.14       27.01    
        26.87       26.71       26.55       26.36       26.15       25.92       25.66       25.35       24.98       24.49    
  18    28.15       28.15       28.13       28.12       28.10       28.07       28.04       28.00       27.96       27.91    
        27.85       27.79       27.72       27.64       27.56       27.46       27.37       27.26       27.14       27.01    
        26.87       26.71       26.55       26.36       26.15       25.92       25.66       25.35       24.98       24.49    
  19    28.15       28.15       28.13       28.12       28.10       28.07       28.04       28.00       27.96       27.91    
        27.85       27.79       27.72       27.64       27.56       27.46       27.37       27.26       27.14       27.01    
        26.87       26.71       26.55       26.36       26.15       25.92       25.66       25.35       24.98       24.49    
  20    28.15       28.15       28.13       28.12       28.10       28.07       28.04       28.00       27.96       27.91    
        27.85       27.79       27.72       27.64       27.56       27.46       27.37       27.26       27.14       27.01    
        26.87       26.71       26.55       26.36       26.15       25.92       25.66       25.35       24.98       24.49    
  21    28.15       28.15       28.13       28.12       28.10       28.07       28.04       28.00       27.96       27.91    
        27.85       27.79       27.72       27.64       27.56       27.46       27.37       27.26       27.14       27.01    
        26.87       26.71       26.55       26.36       26.15       25.92       25.66       25.35       24.98       24.49    
  22    28.15       28.15       28.13       28.12       28.10       28.07       28.04       28.00       27.96       27.91    
        27.85       27.79       27.72       27.64       27.56       27.46       27.37       27.26       27.14       27.01    
        26.87       26.71       26.55       26.36       26.15       25.92       25.66       25.35       24.98       24.49    
  23    28.15       28.15       28.13       28.12       28.10       28.07       28.04       28.00       27.96       27.91    
        27.85       27.79       27.72       27.64       27.56       27.46       27.37       27.26       27.14       27.01    
        26.87       26.71       26.55       26.36       26.15       25.92       25.66       25.35       24.98       24.49    
  24    28.15       28.15       28.13       28.12       28.10       28.07       28.04       28.00       27.96       27.91    
        27.85       27.79       27.72       27.64       27.56       27.46       27.37       27.26       27.14       27.01    
        26.87       26.71       26.55       26.36       26.15       25.92       25.66       25.35       24.98       24.49    
  25    28.15       28.15       28.13       28.12       28.10       28.07       28.04       28.00       27.96       27.91    
        27.85       27.79       27.72       27.64       27.56       27.46       27.37       27.26       27.14       27.01    
        26.87       26.71       26.55       26.36       26.15       25.92       25.66       25.35       24.98       24.49    
  26    28.15       28.15       28.13       28.12       28.10       28.07       28.04       28.00       27.96       27.91    
        27.85       27.79       27.72       27.64       27.56       27.46       27.37       27.26       27.14       27.01    
        26.87       26.71       26.55       26.36       26.15       25.92       25.66       25.35       24.98       24.49    
  27    28.15       28.15       28.13       28.12       28.10       28.07       28.04       28.00       27.96       27.91    
        27.85       27.79       27.72       27.64       27.56       27.46       27.37       27.26       27.14       27.01    
        26.87       26.71       26.55       26.36       26.15       25.92       25.66       25.35       24.98       24.49    
  28    28.15       28.15       28.13       28.12       28.10       28.07       28.04       28.00       27.96       27.91    
        27.85       27.79       27.72       27.64       27.56       27.46       27.37       27.26       27.14       27.01    
        26.87       26.71       26.55       26.36       26.15       25.92       25.66       25.35       24.98       24.49    
  29    28.15       28.15       28.13       28.12       28.10       28.07       28.04       28.00       27.96       27.91    
        27.85       27.79       27.72       27.64       27.56       27.46       27.37       27.26       27.14       27.01    
        26.87       26.71       26.55       26.36       26.15       25.92       25.66       25.35       24.98       24.49    
  30    28.15       28.15       28.13       28.12       28.10       28.07       28.04       28.00       27.96       27.91    
        27.85       27.79       27.72       27.64       27.56       27.46       27.37       27.26       27.14       27.01    
        26.87       26.71       26.55       26.36       26.15       25.92       25.66       25.35       24.98       24.49    

 HEAD WILL BE SAVED ON UNIT 1017 AT END OF TIME STEP   10, STRESS PERIOD   14


  VOLUME BUDGET FOR ENTIRE MODEL AT END OF TIME STEP   10, STRESS PERIOD  14
  ---------------------------------------------------------------------------------------------------

     CUMULATIVE VOLUME      L**3       RATES FOR THIS TIME STEP      L**3/T          PACKAGE NAME    
     ------------------                 ------------------------                     ----------------

           IN:                                      IN:
           ---                                      ---
              STO-SS =          23.1669                STO-SS =           0.0000     STORAGE         
              STO-SY =       14839.5172                STO-SY =           0.0000     STORAGE         
                 RCH =       68527.4223                   RCH =         286.0273     RCHA            
                 CHD =        1052.4133                   CHD =           0.0000     CHD             

            TOTAL IN =       84442.5197              TOTAL IN =         286.0273

          OUT:                                     OUT:
          ----                                     ----
              STO-SS =          17.9926                STO-SS =           0.1108     STORAGE         
              STO-SY =       11670.7504                STO-SY =          69.5741     STORAGE         
                 RCH =           0.0000                   RCH =           0.0000     RCHA            
                 CHD =       72753.8304                   CHD =         216.3514     CHD             

           TOTAL OUT =       84442.5735             TOTAL OUT =         286.0362

            IN - OUT =      -5.3801E-02              IN - OUT =      -8.9561E-03

 PERCENT DISCREPANCY =          -0.00     PERCENT DISCREPANCY =          -0.00




         TIME SUMMARY AT END OF TIME STEP   10 IN STRESS PERIOD   14
                    SECONDS     MINUTES      HOURS       DAYS        YEARS
                    -----------------------------------------------------------
   TIME STEP LENGTH 2.59200E+05  4320.0      72.000      3.0000     8.21355E-03
 STRESS PERIOD TIME 2.59200E+06  43200.      720.00      30.000     8.21355E-02
         TOTAL TIME 3.37824E+07 5.63040E+05  9384.0      391.00      1.0705    

 OUTPUT CONTROL FOR STRESS PERIOD 15 IS REPEATED USING SETTINGS FROM A PREVIOUS STRESS PERIOD.


 STRESS PERIOD 15 IS TRANSIENT


                 RECHARGE =  0.2465750E-02
 UBDSV1 SAVING           STO-SS ON UNIT   1016 AT TIME STEP      1, STRESS PERIOD     15
 UBDSV1 SAVING           STO-SY ON UNIT   1016 AT TIME STEP      1, STRESS PERIOD     15
 UBDSV1 SAVING     FLOW-JA-FACE ON UNIT   1016 AT TIME STEP      1, STRESS PERIOD     15
 UBDSV06 SAVING              RCH IN MODEL TEST_TRANS       PACKAGE TEST_TRANS      CONNECTED TO MODEL TEST_TRANS       PACKAGE RCHA             ON UNIT   1016 AT TIME STEP      1, STRESS PERIOD     15
 UBDSV06 SAVING              CHD IN MODEL TEST_TRANS       PACKAGE TEST_TRANS      CONNECTED TO MODEL TEST_TRANS       PACKAGE CHD              ON UNIT   1016 AT TIME STEP      1, STRESS PERIOD     15
1
  HEAD IN LAYER   1 AT END OF TIME STEP   1 IN STRESS PERIOD   15
  ---------------------------------------------------------------------------

            1           2           3           4           5           6           7           8           9          10
           11          12          13          14          15          16          17          18          19          20
           21          22          23          24          25          26          27          28          29          30
 ........................................................................................................................
   1    28.15       28.15       28.14       28.12       28.10       28.07       28.04       28.00       27.96       27.91    
        27.85       27.79       27.72       27.64       27.56       27.47       27.37       27.26       27.14       27.01    
        26.87       26.72       26.55       26.37       26.17       25.95       25.71       25.45       25.18       24.93    
   2    28.15       28.15       28.14       28.12       28.10       28.07       28.04       28.00       27.96       27.91    
        27.85       27.79       27.72       27.64       27.56       27.47       27.37       27.26       27.14       27.01    
        26.87       26.72       26.55       26.37       26.17       25.95       25.71       25.45       25.18       24.93    
   3    28.15       28.15       28.14       28.12       28.10       28.07       28.04       28.00       27.96       27.91    
        27.85       27.79       27.72       27.64       27.56       27.47       27.37       27.26       27.14       27.01    
        26.87       26.72       26.55       26.37       26.17       25.95       25.71       25.45       25.18       24.93    
   4    28.15       28.15       28.14       28.12       28.10       28.07       28.04       28.00       27.96       27.91    
        27.85       27.79       27.72       27.64       27.56       27.47       27.37       27.26       27.14       27.01    
        26.87       26.72       26.55       26.37       26.17       25.95       25.71       25.45       25.18       24.93    
   5    28.15       28.15       28.14       28.12       28.10       28.07       28.04       28.00       27.96       27.91    
        27.85       27.79       27.72       27.64       27.56       27.47       27.37       27.26       27.14       27.01    
        26.87       26.72       26.55       26.37       26.17       25.95       25.71       25.45       25.18       24.93    
   6    28.15       28.15       28.14       28.12       28.10       28.07       28.04       28.00       27.96       27.91    
        27.85       27.79       27.72       27.64       27.56       27.47       27.37       27.26       27.14       27.01    
        26.87       26.72       26.55       26.37       26.17       25.95       25.71       25.45       25.18       24.93    
   7    28.15       28.15       28.14       28.12       28.10       28.07       28.04       28.00       27.96       27.91    
        27.85       27.79       27.72       27.64       27.56       27.47       27.37       27.26       27.14       27.01    
        26.87       26.72       26.55       26.37       26.17       25.95       25.71       25.45       25.18       24.93    
   8    28.15       28.15       28.14       28.12       28.10       28.07       28.04       28.00       27.96       27.91    
        27.85       27.79       27.72       27.64       27.56       27.47       27.37       27.26       27.14       27.01    
        26.87       26.72       26.55       26.37       26.17       25.95       25.71       25.45       25.18       24.93    
   9    28.15       28.15       28.14       28.12       28.10       28.07       28.04       28.00       27.96       27.91    
        27.85       27.79       27.72       27.64       27.56       27.47       27.37       27.26       27.14       27.01    
        26.87       26.72       26.55       26.37       26.17       25.95       25.71       25.45       25.18       24.93    
  10    28.15       28.15       28.14       28.12       28.10       28.07       28.04       28.00       27.96       27.91    
        27.85       27.79       27.72       27.64       27.56       27.47       27.37       27.26       27.14       27.01    
        26.87       26.72       26.55       26.37       26.17       25.95       25.71       25.45       25.18       24.93    
  11    28.15       28.15       28.14       28.12       28.10       28.07       28.04       28.00       27.96       27.91    
        27.85       27.79       27.72       27.64       27.56       27.47       27.37       27.26       27.14       27.01    
        26.87       26.72       26.55       26.37       26.17       25.95       25.71       25.45       25.18       24.93    
  12    28.15       28.15       28.14       28.12       28.10       28.07       28.04       28.00       27.96       27.91    
        27.85       27.79       27.72       27.64       27.56       27.47       27.37       27.26       27.14       27.01    
        26.87       26.72       26.55       26.37       26.17       25.95       25.71       25.45       25.18       24.93    
  13    28.15       28.15       28.14       28.12       28.10       28.07       28.04       28.00       27.96       27.91    
        27.85       27.79       27.72       27.64       27.56       27.47       27.37       27.26       27.14       27.01    
        26.87       26.72       26.55       26.37       26.17       25.95       25.71       25.45       25.18       24.93    
  14    28.15       28.15       28.14       28.12       28.10       28.07       28.04       28.00       27.96       27.91    
        27.85       27.79       27.72       27.64       27.56       27.47       27.37       27.26       27.14       27.01    
        26.87       26.72       26.55       26.37       26.17       25.95       25.71       25.45       25.18       24.93    
  15    28.15       28.15       28.14       28.12       28.10       28.07       28.04       28.00       27.96       27.91    
        27.85       27.79       27.72       27.64       27.56       27.47       27.37       27.26       27.14       27.01    
        26.87       26.72       26.55       26.37       26.17       25.95       25.71       25.45       25.18       24.93    
  16    28.15       28.15       28.14       28.12       28.10       28.07       28.04       28.00       27.96       27.91    
        27.85       27.79       27.72       27.64       27.56       27.47       27.37       27.26       27.14       27.01    
        26.87       26.72       26.55       26.37       26.17       25.95       25.71       25.45       25.18       24.93    
  17    28.15       28.15       28.14       28.12       28.10       28.07       28.04       28.00       27.96       27.91    
        27.85       27.79       27.72       27.64       27.56       27.47       27.37       27.26       27.14       27.01    
        26.87       26.72       26.55       26.37       26.17       25.95       25.71       25.45       25.18       24.93    
  18    28.15       28.15       28.14       28.12       28.10       28.07       28.04       28.00       27.96       27.91    
        27.85       27.79       27.72       27.64       27.56       27.47       27.37       27.26       27.14       27.01    
        26.87       26.72       26.55       26.37       26.17       25.95       25.71       25.45       25.18       24.93    
  19    28.15       28.15       28.14       28.12       28.10       28.07       28.04       28.00       27.96       27.91    
        27.85       27.79       27.72       27.64       27.56       27.47       27.37       27.26       27.14       27.01    
        26.87       26.72       26.55       26.37       26.17       25.95       25.71       25.45       25.18       24.93    
  20    28.15       28.15       28.14       28.12       28.10       28.07       28.04       28.00       27.96       27.91    
        27.85       27.79       27.72       27.64       27.56       27.47       27.37       27.26       27.14       27.01    
        26.87       26.72       26.55       26.37       26.17       25.95       25.71       25.45       25.18       24.93    
  21    28.15       28.15       28.14       28.12       28.10       28.07       28.04       28.00       27.96       27.91    
        27.85       27.79       27.72       27.64       27.56       27.47       27.37       27.26       27.14       27.01    
        26.87       26.72       26.55       26.37       26.17       25.95       25.71       25.45       25.18       24.93    
  22    28.15       28.15       28.14       28.12       28.10       28.07       28.04       28.00       27.96       27.91    
        27.85       27.79       27.72       27.64       27.56       27.47       27.37       27.26       27.14       27.01    
        26.87       26.72       26.55       26.37       26.17       25.95       25.71       25.45       25.18       24.93    
  23    28.15       28.15       28.14       28.12       28.10       28.07       28.04       28.00       27.96       27.91    
        27.85       27.79       27.72       27.64       27.56       27.47       27.37       27.26       27.14       27.01    
        26.87       26.72       26.55       26.37       26.17       25.95       25.71       25.45       25.18       24.93    
  24    28.15       28.15       28.14       28.12       28.10       28.07       28.04       28.00       27.96       27.91    
        27.85       27.79       27.72       27.64       27.56       27.47       27.37       27.26       27.14       27.01    
        26.87       26.72       26.55       26.37       26.17       25.95       25.71       25.45       25.18       24.93    
  25    28.15       28.15       28.14       28.12       28.10       28.07       28.04       28.00       27.96       27.91    
        27.85       27.79       27.72       27.64       27.56       27.47       27.37       27.26       27.14       27.01    
        26.87       26.72       26.55       26.37       26.17       25.95       25.71       25.45       25.18       24.93    
  26    28.15       28.15       28.14       28.12       28.10       28.07       28.04       28.00       27.96       27.91    
        27.85       27.79       27.72       27.64       27.56       27.47       27.37       27.26       27.14       27.01    
        26.87       26.72       26.55       26.37       26.17       25.95       25.71       25.45       25.18       24.93    
  27    28.15       28.15       28.14       28.12       28.10       28.07       28.04       28.00       27.96       27.91    
        27.85       27.79       27.72       27.64       27.56       27.47       27.37       27.26       27.14       27.01    
        26.87       26.72       26.55       26.37       26.17       25.95       25.71       25.45       25.18       24.93    
  28    28.15       28.15       28.14       28.12       28.10       28.07       28.04       28.00       27.96       27.91    
        27.85       27.79       27.72       27.64       27.56       27.47       27.37       27.26       27.14       27.01    
        26.87       26.72       26.55       26.37       26.17       25.95       25.71       25.45       25.18       24.93    
  29    28.15       28.15       28.14       28.12       28.10       28.07       28.04       28.00       27.96       27.91    
        27.85       27.79       27.72       27.64       27.56       27.47       27.37       27.26       27.14       27.01    
        26.87       26.72       26.55       26.37       26.17       25.95       25.71       25.45       25.18       24.93    
  30    28.15       28.15       28.14       28.12       28.10       28.07       28.04       28.00       27.96       27.91    
        27.85       27.79       27.72       27.64       27.56       27.47       27.37       27.26       27.14       27.01    
        26.87       26.72       26.55       26.37       26.17       25.95       25.71       25.45       25.18       24.93    

 HEAD WILL BE SAVED ON UNIT 1017 AT END OF TIME STEP    1, STRESS PERIOD   15



         TIME SUMMARY AT END OF TIME STEP    1 IN STRESS PERIOD   15
                    SECONDS     MINUTES      HOURS       DAYS        YEARS
                    -----------------------------------------------------------
   TIME STEP LENGTH 2.59200E+05  4320.0      72.000      3.0000     8.21355E-03
 STRESS PERIOD TIME 2.59200E+05  4320.0      72.000      3.0000     8.21355E-03
         TOTAL TIME 3.40416E+07 5.67360E+05  9456.0      394.00      1.0787    
 UBDSV1 SAVING           STO-SS ON UNIT   1016 AT TIME STEP      2, STRESS PERIOD     15
 UBDSV1 SAVING           STO-SY ON UNIT   1016 AT TIME STEP      2, STRESS PERIOD     15
 UBDSV1 SAVING     FLOW-JA-FACE ON UNIT   1016 AT TIME STEP      2, STRESS PERIOD     15
 UBDSV06 SAVING              RCH IN MODEL TEST_TRANS       PACKAGE TEST_TRANS      CONNECTED TO MODEL TEST_TRANS       PACKAGE RCHA             ON UNIT   1016 AT TIME STEP      2, STRESS PERIOD     15
 UBDSV06 SAVING              CHD IN MODEL TEST_TRANS       PACKAGE TEST_TRANS      CONNECTED TO MODEL TEST_TRANS       PACKAGE CHD              ON UNIT   1016 AT TIME STEP      2, STRESS PERIOD     15

 HEAD WILL BE SAVED ON UNIT 1017 AT END OF TIME STEP    2, STRESS PERIOD   15
 UBDSV1 SAVING           STO-SS ON UNIT   1016 AT TIME STEP      3, STRESS PERIOD     15
 UBDSV1 SAVING           STO-SY ON UNIT   1016 AT TIME STEP      3, STRESS PERIOD     15
 UBDSV1 SAVING     FLOW-JA-FACE ON UNIT   1016 AT TIME STEP      3, STRESS PERIOD     15
 UBDSV06 SAVING              RCH IN MODEL TEST_TRANS       PACKAGE TEST_TRANS      CONNECTED TO MODEL TEST_TRANS       PACKAGE RCHA             ON UNIT   1016 AT TIME STEP      3, STRESS PERIOD     15
 UBDSV06 SAVING              CHD IN MODEL TEST_TRANS       PACKAGE TEST_TRANS      CONNECTED TO MODEL TEST_TRANS       PACKAGE CHD              ON UNIT   1016 AT TIME STEP      3, STRESS PERIOD     15

 HEAD WILL BE SAVED ON UNIT 1017 AT END OF TIME STEP    3, STRESS PERIOD   15
 UBDSV1 SAVING           STO-SS ON UNIT   1016 AT TIME STEP      4, STRESS PERIOD     15
 UBDSV1 SAVING           STO-SY ON UNIT   1016 AT TIME STEP      4, STRESS PERIOD     15
 UBDSV1 SAVING     FLOW-JA-FACE ON UNIT   1016 AT TIME STEP      4, STRESS PERIOD     15
 UBDSV06 SAVING              RCH IN MODEL TEST_TRANS       PACKAGE TEST_TRANS      CONNECTED TO MODEL TEST_TRANS       PACKAGE RCHA             ON UNIT   1016 AT TIME STEP      4, STRESS PERIOD     15
 UBDSV06 SAVING              CHD IN MODEL TEST_TRANS       PACKAGE TEST_TRANS      CONNECTED TO MODEL TEST_TRANS       PACKAGE CHD              ON UNIT   1016 AT TIME STEP      4, STRESS PERIOD     15

 HEAD WILL BE SAVED ON UNIT 1017 AT END OF TIME STEP    4, STRESS PERIOD   15
 UBDSV1 SAVING           STO-SS ON UNIT   1016 AT TIME STEP      5, STRESS PERIOD     15
 UBDSV1 SAVING           STO-SY ON UNIT   1016 AT TIME STEP      5, STRESS PERIOD     15
 UBDSV1 SAVING     FLOW-JA-FACE ON UNIT   1016 AT TIME STEP      5, STRESS PERIOD     15
 UBDSV06 SAVING              RCH IN MODEL TEST_TRANS       PACKAGE TEST_TRANS      CONNECTED TO MODEL TEST_TRANS       PACKAGE RCHA             ON UNIT   1016 AT TIME STEP      5, STRESS PERIOD     15
 UBDSV06 SAVING              CHD IN MODEL TEST_TRANS       PACKAGE TEST_TRANS      CONNECTED TO MODEL TEST_TRANS       PACKAGE CHD              ON UNIT   1016 AT TIME STEP      5, STRESS PERIOD     15

 HEAD WILL BE SAVED ON UNIT 1017 AT END OF TIME STEP    5, STRESS PERIOD   15
 UBDSV1 SAVING           STO-SS ON UNIT   1016 AT TIME STEP      6, STRESS PERIOD     15
 UBDSV1 SAVING           STO-SY ON UNIT   1016 AT TIME STEP      6, STRESS PERIOD     15
 UBDSV1 SAVING     FLOW-JA-FACE ON UNIT   1016 AT TIME STEP      6, STRESS PERIOD     15
 UBDSV06 SAVING              RCH IN MODEL TEST_TRANS       PACKAGE TEST_TRANS      CONNECTED TO MODEL TEST_TRANS       PACKAGE RCHA             ON UNIT   1016 AT TIME STEP      6, STRESS PERIOD     15
 UBDSV06 SAVING              CHD IN MODEL TEST_TRANS       PACKAGE TEST_TRANS      CONNECTED TO MODEL TEST_TRANS       PACKAGE CHD              ON UNIT   1016 AT TIME STEP      6, STRESS PERIOD     15

 HEAD WILL BE SAVED ON UNIT 1017 AT END OF TIME STEP    6, STRESS PERIOD   15
 UBDSV1 SAVING           STO-SS ON UNIT   1016 AT TIME STEP      7, STRESS PERIOD     15
 UBDSV1 SAVING           STO-SY ON UNIT   1016 AT TIME STEP      7, STRESS PERIOD     15
 UBDSV1 SAVING     FLOW-JA-FACE ON UNIT   1016 AT TIME STEP      7, STRESS PERIOD     15
 UBDSV06 SAVING              RCH IN MODEL TEST_TRANS       PACKAGE TEST_TRANS      CONNECTED TO MODEL TEST_TRANS       PACKAGE RCHA             ON UNIT   1016 AT TIME STEP      7, STRESS PERIOD     15
 UBDSV06 SAVING              CHD IN MODEL TEST_TRANS       PACKAGE TEST_TRANS      CONNECTED TO MODEL TEST_TRANS       PACKAGE CHD              ON UNIT   1016 AT TIME STEP      7, STRESS PERIOD     15

 HEAD WILL BE SAVED ON UNIT 1017 AT END OF TIME STEP    7, STRESS PERIOD   15
 UBDSV1 SAVING           STO-SS ON UNIT   1016 AT TIME STEP      8, STRESS PERIOD     15
 UBDSV1 SAVING           STO-SY ON UNIT   1016 AT TIME STEP      8, STRESS PERIOD     15
 UBDSV1 SAVING     FLOW-JA-FACE ON UNIT   1016 AT TIME STEP      8, STRESS PERIOD     15
 UBDSV06 SAVING              RCH IN MODEL TEST_TRANS       PACKAGE TEST_TRANS      CONNECTED TO MODEL TEST_TRANS       PACKAGE RCHA             ON UNIT   1016 AT TIME STEP      8, STRESS PERIOD     15
 UBDSV06 SAVING              CHD IN MODEL TEST_TRANS       PACKAGE TEST_TRANS      CONNECTED TO MODEL TEST_TRANS       PACKAGE CHD              ON UNIT   1016 AT TIME STEP      8, STRESS PERIOD     15

 HEAD WILL BE SAVED ON UNIT 1017 AT END OF TIME STEP    8, STRESS PERIOD   15
 UBDSV1 SAVING           STO-SS ON UNIT   1016 AT TIME STEP      9, STRESS PERIOD     15
 UBDSV1 SAVING           STO-SY ON UNIT   1016 AT TIME STEP      9, STRESS PERIOD     15
 UBDSV1 SAVING     FLOW-JA-FACE ON UNIT   1016 AT TIME STEP      9, STRESS PERIOD     15
 UBDSV06 SAVING              RCH IN MODEL TEST_TRANS       PACKAGE TEST_TRANS      CONNECTED TO MODEL TEST_TRANS       PACKAGE RCHA             ON UNIT   1016 AT TIME STEP      9, STRESS PERIOD     15
 UBDSV06 SAVING              CHD IN MODEL TEST_TRANS       PACKAGE TEST_TRANS      CONNECTED TO MODEL TEST_TRANS       PACKAGE CHD              ON UNIT   1016 AT TIME STEP      9, STRESS PERIOD     15

 HEAD WILL BE SAVED ON UNIT 1017 AT END OF TIME STEP    9, STRESS PERIOD   15
 UBDSV1 SAVING           STO-SS ON UNIT   1016 AT TIME STEP     10, STRESS PERIOD     15
 UBDSV1 SAVING           STO-SY ON UNIT   1016 AT TIME STEP     10, STRESS PERIOD     15
 UBDSV1 SAVING     FLOW-JA-FACE ON UNIT   1016 AT TIME STEP     10, STRESS PERIOD     15
 UBDSV06 SAVING              RCH IN MODEL TEST_TRANS       PACKAGE TEST_TRANS      CONNECTED TO MODEL TEST_TRANS       PACKAGE RCHA             ON UNIT   1016 AT TIME STEP     10, STRESS PERIOD     15
 UBDSV06 SAVING              CHD IN MODEL TEST_TRANS       PACKAGE TEST_TRANS      CONNECTED TO MODEL TEST_TRANS       PACKAGE CHD              ON UNIT   1016 AT TIME STEP     10, STRESS PERIOD     15
1
  HEAD IN LAYER   1 AT END OF TIME STEP  10 IN STRESS PERIOD   15
  ---------------------------------------------------------------------------

            1           2           3           4           5           6           7           8           9          10
           11          12          13          14          15          16          17          18          19          20
           21          22          23          24          25          26          27          28          29          30
 ........................................................................................................................
   1    28.17       28.16       28.15       28.13       28.11       28.09       28.05       28.02       27.97       27.92    
        27.87       27.81       27.74       27.66       27.58       27.49       27.40       27.29       27.18       27.06    
        26.93       26.79       26.63       26.46       26.28       26.07       25.85       25.59       25.29       24.93    
   2    28.17       28.16       28.15       28.13       28.11       28.09       28.05       28.02       27.97       27.92    
        27.87       27.81       27.74       27.66       27.58       27.49       27.40       27.29       27.18       27.06    
        26.93       26.79       26.63       26.46       26.28       26.07       25.85       25.59       25.29       24.93    
   3    28.17       28.16       28.15       28.13       28.11       28.09       28.05       28.02       27.97       27.92    
        27.87       27.81       27.74       27.66       27.58       27.49       27.40       27.29       27.18       27.06    
        26.93       26.79       26.63       26.46       26.28       26.07       25.85       25.59       25.29       24.93    
   4    28.17       28.16       28.15       28.13       28.11       28.09       28.05       28.02       27.97       27.92    
        27.87       27.81       27.74       27.66       27.58       27.49       27.40       27.29       27.18       27.06    
        26.93       26.79       26.63       26.46       26.28       26.07       25.85       25.59       25.29       24.93    
   5    28.17       28.16       28.15       28.13       28.11       28.09       28.05       28.02       27.97       27.92    
        27.87       27.81       27.74       27.66       27.58       27.49       27.40       27.29       27.18       27.06    
        26.93       26.79       26.63       26.46       26.28       26.07       25.85       25.59       25.29       24.93    
   6    28.17       28.16       28.15       28.13       28.11       28.09       28.05       28.02       27.97       27.92    
        27.87       27.81       27.74       27.66       27.58       27.49       27.40       27.29       27.18       27.06    
        26.93       26.79       26.63       26.46       26.28       26.07       25.85       25.59       25.29       24.93    
   7    28.17       28.16       28.15       28.13       28.11       28.09       28.05       28.02       27.97       27.92    
        27.87       27.81       27.74       27.66       27.58       27.49       27.40       27.29       27.18       27.06    
        26.93       26.79       26.63       26.46       26.28       26.07       25.85       25.59       25.29       24.93    
   8    28.17       28.16       28.15       28.13       28.11       28.09       28.05       28.02       27.97       27.92    
        27.87       27.81       27.74       27.66       27.58       27.49       27.40       27.29       27.18       27.06    
        26.93       26.79       26.63       26.46       26.28       26.07       25.85       25.59       25.29       24.93    
   9    28.17       28.16       28.15       28.13       28.11       28.09       28.05       28.02       27.97       27.92    
        27.87       27.81       27.74       27.66       27.58       27.49       27.40       27.29       27.18       27.06    
        26.93       26.79       26.63       26.46       26.28       26.07       25.85       25.59       25.29       24.93    
  10    28.17       28.16       28.15       28.13       28.11       28.09       28.05       28.02       27.97       27.92    
        27.87       27.81       27.74       27.66       27.58       27.49       27.40       27.29       27.18       27.06    
        26.93       26.79       26.63       26.46       26.28       26.07       25.85       25.59       25.29       24.93    
  11    28.17       28.16       28.15       28.13       28.11       28.09       28.05       28.02       27.97       27.92    
        27.87       27.81       27.74       27.66       27.58       27.49       27.40       27.29       27.18       27.06    
        26.93       26.79       26.63       26.46       26.28       26.07       25.85       25.59       25.29       24.93    
  12    28.17       28.16       28.15       28.13       28.11       28.09       28.05       28.02       27.97       27.92    
        27.87       27.81       27.74       27.66       27.58       27.49       27.40       27.29       27.18       27.06    
        26.93       26.79       26.63       26.46       26.28       26.07       25.85       25.59       25.29       24.93    
  13    28.17       28.16       28.15       28.13       28.11       28.09       28.05       28.02       27.97       27.92    
        27.87       27.81       27.74       27.66       27.58       27.49       27.40       27.29       27.18       27.06    
        26.93       26.79       26.63       26.46       26.28       26.07       25.85       25.59       25.29       24.93    
  14    28.17       28.16       28.15       28.13       28.11       28.09       28.05       28.02       27.97       27.92    
        27.87       27.81       27.74       27.66       27.58       27.49       27.40       27.29       27.18       27.06    
        26.93       26.79       26.63       26.46       26.28       26.07       25.85       25.59       25.29       24.93    
  15    28.17       28.16       28.15       28.13       28.11       28.09       28.05       28.02       27.97       27.92    
        27.87       27.81       27.74       27.66       27.58       27.49       27.40       27.29       27.18       27.06    
        26.93       26.79       26.63       26.46       26.28       26.07       25.85       25.59       25.29       24.93    
  16    28.17       28.16       28.15       28.13       28.11       28.09       28.05       28.02       27.97       27.92    
        27.87       27.81       27.74       27.66       27.58       27.49       27.40       27.29       27.18       27.06    
        26.93       26.79       26.63       26.46       26.28       26.07       25.85       25.59       25.29       24.93    
  17    28.17       28.16       28.15       28.13       28.11       28.09       28.05       28.02       27.97       27.92    
        27.87       27.81       27.74       27.66       27.58       27.49       27.40       27.29       27.18       27.06    
        26.93       26.79       26.63       26.46       26.28       26.07       25.85       25.59       25.29       24.93    
  18    28.17       28.16       28.15       28.13       28.11       28.09       28.05       28.02       27.97       27.92    
        27.87       27.81       27.74       27.66       27.58       27.49       27.40       27.29       27.18       27.06    
        26.93       26.79       26.63       26.46       26.28       26.07       25.85       25.59       25.29       24.93    
  19    28.17       28.16       28.15       28.13       28.11       28.09       28.05       28.02       27.97       27.92    
        27.87       27.81       27.74       27.66       27.58       27.49       27.40       27.29       27.18       27.06    
        26.93       26.79       26.63       26.46       26.28       26.07       25.85       25.59       25.29       24.93    
  20    28.17       28.16       28.15       28.13       28.11       28.09       28.05       28.02       27.97       27.92    
        27.87       27.81       27.74       27.66       27.58       27.49       27.40       27.29       27.18       27.06    
        26.93       26.79       26.63       26.46       26.28       26.07       25.85       25.59       25.29       24.93    
  21    28.17       28.16       28.15       28.13       28.11       28.09       28.05       28.02       27.97       27.92    
        27.87       27.81       27.74       27.66       27.58       27.49       27.40       27.29       27.18       27.06    
        26.93       26.79       26.63       26.46       26.28       26.07       25.85       25.59       25.29       24.93    
  22    28.17       28.16       28.15       28.13       28.11       28.09       28.05       28.02       27.97       27.92    
        27.87       27.81       27.74       27.66       27.58       27.49       27.40       27.29       27.18       27.06    
        26.93       26.79       26.63       26.46       26.28       26.07       25.85       25.59       25.29       24.93    
  23    28.17       28.16       28.15       28.13       28.11       28.09       28.05       28.02       27.97       27.92    
        27.87       27.81       27.74       27.66       27.58       27.49       27.40       27.29       27.18       27.06    
        26.93       26.79       26.63       26.46       26.28       26.07       25.85       25.59       25.29       24.93    
  24    28.17       28.16       28.15       28.13       28.11       28.09       28.05       28.02       27.97       27.92    
        27.87       27.81       27.74       27.66       27.58       27.49       27.40       27.29       27.18       27.06    
        26.93       26.79       26.63       26.46       26.28       26.07       25.85       25.59       25.29       24.93    
  25    28.17       28.16       28.15       28.13       28.11       28.09       28.05       28.02       27.97       27.92    
        27.87       27.81       27.74       27.66       27.58       27.49       27.40       27.29       27.18       27.06    
        26.93       26.79       26.63       26.46       26.28       26.07       25.85       25.59       25.29       24.93    
  26    28.17       28.16       28.15       28.13       28.11       28.09       28.05       28.02       27.97       27.92    
        27.87       27.81       27.74       27.66       27.58       27.49       27.40       27.29       27.18       27.06    
        26.93       26.79       26.63       26.46       26.28       26.07       25.85       25.59       25.29       24.93    
  27    28.17       28.16       28.15       28.13       28.11       28.09       28.05       28.02       27.97       27.92    
        27.87       27.81       27.74       27.66       27.58       27.49       27.40       27.29       27.18       27.06    
        26.93       26.79       26.63       26.46       26.28       26.07       25.85       25.59       25.29       24.93    
  28    28.17       28.16       28.15       28.13       28.11       28.09       28.05       28.02       27.97       27.92    
        27.87       27.81       27.74       27.66       27.58       27.49       27.40       27.29       27.18       27.06    
        26.93       26.79       26.63       26.46       26.28       26.07       25.85       25.59       25.29       24.93    
  29    28.17       28.16       28.15       28.13       28.11       28.09       28.05       28.02       27.97       27.92    
        27.87       27.81       27.74       27.66       27.58       27.49       27.40       27.29       27.18       27.06    
        26.93       26.79       26.63       26.46       26.28       26.07       25.85       25.59       25.29       24.93    
  30    28.17       28.16       28.15       28.13       28.11       28.09       28.05       28.02       27.97       27.92    
        27.87       27.81       27.74       27.66       27.58       27.49       27.40       27.29       27.18       27.06    
        26.93       26.79       26.63       26.46       26.28       26.07       25.85       25.59       25.29       24.93    

 HEAD WILL BE SAVED ON UNIT 1017 AT END OF TIME STEP   10, STRESS PERIOD   15


  VOLUME BUDGET FOR ENTIRE MODEL AT END OF TIME STEP   10, STRESS PERIOD  15
  ---------------------------------------------------------------------------------------------------

     CUMULATIVE VOLUME      L**3       RATES FOR THIS TIME STEP      L**3/T          PACKAGE NAME    
     ------------------                 ------------------------                     ----------------

           IN:                                      IN:
           ---                                      ---
              STO-SS =          23.1669                STO-SS =           0.0000     STORAGE         
              STO-SY =       14839.5172                STO-SY =           0.0000     STORAGE         
                 RCH =       74963.0298                   RCH =         214.5203     RCHA            
                 CHD =        1052.4133                   CHD =           0.0000     CHD             

            TOTAL IN =       90878.1272              TOTAL IN =         214.5203

          OUT:                                     OUT:
          ----                                     ----
              STO-SS =          19.5792                STO-SS =       3.1378E-02     STORAGE         
              STO-SY =       12742.6565                STO-SY =          20.1274     STORAGE         
                 RCH =           0.0000                   RCH =           0.0000     RCHA            
                 CHD =       78116.0225                   CHD =         194.3652     CHD             

           TOTAL OUT =       90878.2582             TOTAL OUT =         214.5240

            IN - OUT =          -0.1310              IN - OUT =      -3.7579E-03

 PERCENT DISCREPANCY =          -0.00     PERCENT DISCREPANCY =          -0.00




         TIME SUMMARY AT END OF TIME STEP   10 IN STRESS PERIOD   15
                    SECONDS     MINUTES      HOURS       DAYS        YEARS
                    -----------------------------------------------------------
   TIME STEP LENGTH 2.59200E+05  4320.0      72.000      3.0000     8.21355E-03
 STRESS PERIOD TIME 2.59200E+06  43200.      720.00      30.000     8.21355E-02
         TOTAL TIME 3.63744E+07 6.06240E+05  10104.      421.00      1.1526    

 OUTPUT CONTROL FOR STRESS PERIOD 16 IS REPEATED USING SETTINGS FROM A PREVIOUS STRESS PERIOD.


 STRESS PERIOD 16 IS TRANSIENT


                 RECHARGE =  0.1643840E-02
 UBDSV1 SAVING           STO-SS ON UNIT   1016 AT TIME STEP      1, STRESS PERIOD     16
 UBDSV1 SAVING           STO-SY ON UNIT   1016 AT TIME STEP      1, STRESS PERIOD     16
 UBDSV1 SAVING     FLOW-JA-FACE ON UNIT   1016 AT TIME STEP      1, STRESS PERIOD     16
 UBDSV06 SAVING              RCH IN MODEL TEST_TRANS       PACKAGE TEST_TRANS      CONNECTED TO MODEL TEST_TRANS       PACKAGE RCHA             ON UNIT   1016 AT TIME STEP      1, STRESS PERIOD     16
 UBDSV06 SAVING              CHD IN MODEL TEST_TRANS       PACKAGE TEST_TRANS      CONNECTED TO MODEL TEST_TRANS       PACKAGE CHD              ON UNIT   1016 AT TIME STEP      1, STRESS PERIOD     16
1
  HEAD IN LAYER   1 AT END OF TIME STEP   1 IN STRESS PERIOD   16
  ---------------------------------------------------------------------------

            1           2           3           4           5           6           7           8           9          10
           11          12          13          14          15          16          17          18          19          20
           21          22          23          24          25          26          27          28          29          30
 ........................................................................................................................
   1    28.15       28.15       28.14       28.12       28.10       28.08       28.04       28.01       27.96       27.91    
        27.86       27.80       27.73       27.66       27.57       27.49       27.39       27.29       27.17       27.05    
        26.92       26.78       26.63       26.46       26.28       26.07       25.85       25.61       25.34       25.05    
   2    28.15       28.15       28.14       28.12       28.10       28.08       28.04       28.01       27.96       27.91    
        27.86       27.80       27.73       27.66       27.57       27.49       27.39       27.29       27.17       27.05    
        26.92       26.78       26.63       26.46       26.28       26.07       25.85       25.61       25.34       25.05    
   3    28.15       28.15       28.14       28.12       28.10       28.08       28.04       28.01       27.96       27.91    
        27.86       27.80       27.73       27.66       27.57       27.49       27.39       27.29       27.17       27.05    
        26.92       26.78       26.63       26.46       26.28       26.07       25.85       25.61       25.34       25.05    
   4    28.15       28.15       28.14       28.12       28.10       28.08       28.04       28.01       27.96       27.91    
        27.86       27.80       27.73       27.66       27.57       27.49       27.39       27.29       27.17       27.05    
        26.92       26.78       26.63       26.46       26.28       26.07       25.85       25.61       25.34       25.05    
   5    28.15       28.15       28.14       28.12       28.10       28.08       28.04       28.01       27.96       27.91    
        27.86       27.80       27.73       27.66       27.57       27.49       27.39       27.29       27.17       27.05    
        26.92       26.78       26.63       26.46       26.28       26.07       25.85       25.61       25.34       25.05    
   6    28.15       28.15       28.14       28.12       28.10       28.08       28.04       28.01       27.96       27.91    
        27.86       27.80       27.73       27.66       27.57       27.49       27.39       27.29       27.17       27.05    
        26.92       26.78       26.63       26.46       26.28       26.07       25.85       25.61       25.34       25.05    
   7    28.15       28.15       28.14       28.12       28.10       28.08       28.04       28.01       27.96       27.91    
        27.86       27.80       27.73       27.66       27.57       27.49       27.39       27.29       27.17       27.05    
        26.92       26.78       26.63       26.46       26.28       26.07       25.85       25.61       25.34       25.05    
   8    28.15       28.15       28.14       28.12       28.10       28.08       28.04       28.01       27.96       27.91    
        27.86       27.80       27.73       27.66       27.57       27.49       27.39       27.29       27.17       27.05    
        26.92       26.78       26.63       26.46       26.28       26.07       25.85       25.61       25.34       25.05    
   9    28.15       28.15       28.14       28.12       28.10       28.08       28.04       28.01       27.96       27.91    
        27.86       27.80       27.73       27.66       27.57       27.49       27.39       27.29       27.17       27.05    
        26.92       26.78       26.63       26.46       26.28       26.07       25.85       25.61       25.34       25.05    
  10    28.15       28.15       28.14       28.12       28.10       28.08       28.04       28.01       27.96       27.91    
        27.86       27.80       27.73       27.66       27.57       27.49       27.39       27.29       27.17       27.05    
        26.92       26.78       26.63       26.46       26.28       26.07       25.85       25.61       25.34       25.05    
  11    28.15       28.15       28.14       28.12       28.10       28.08       28.04       28.01       27.96       27.91    
        27.86       27.80       27.73       27.66       27.57       27.49       27.39       27.29       27.17       27.05    
        26.92       26.78       26.63       26.46       26.28       26.07       25.85       25.61       25.34       25.05    
  12    28.15       28.15       28.14       28.12       28.10       28.08       28.04       28.01       27.96       27.91    
        27.86       27.80       27.73       27.66       27.57       27.49       27.39       27.29       27.17       27.05    
        26.92       26.78       26.63       26.46       26.28       26.07       25.85       25.61       25.34       25.05    
  13    28.15       28.15       28.14       28.12       28.10       28.08       28.04       28.01       27.96       27.91    
        27.86       27.80       27.73       27.66       27.57       27.49       27.39       27.29       27.17       27.05    
        26.92       26.78       26.63       26.46       26.28       26.07       25.85       25.61       25.34       25.05    
  14    28.15       28.15       28.14       28.12       28.10       28.08       28.04       28.01       27.96       27.91    
        27.86       27.80       27.73       27.66       27.57       27.49       27.39       27.29       27.17       27.05    
        26.92       26.78       26.63       26.46       26.28       26.07       25.85       25.61       25.34       25.05    
  15    28.15       28.15       28.14       28.12       28.10       28.08       28.04       28.01       27.96       27.91    
        27.86       27.80       27.73       27.66       27.57       27.49       27.39       27.29       27.17       27.05    
        26.92       26.78       26.63       26.46       26.28       26.07       25.85       25.61       25.34       25.05    
  16    28.15       28.15       28.14       28.12       28.10       28.08       28.04       28.01       27.96       27.91    
        27.86       27.80       27.73       27.66       27.57       27.49       27.39       27.29       27.17       27.05    
        26.92       26.78       26.63       26.46       26.28       26.07       25.85       25.61       25.34       25.05    
  17    28.15       28.15       28.14       28.12       28.10       28.08       28.04       28.01       27.96       27.91    
        27.86       27.80       27.73       27.66       27.57       27.49       27.39       27.29       27.17       27.05    
        26.92       26.78       26.63       26.46       26.28       26.07       25.85       25.61       25.34       25.05    
  18    28.15       28.15       28.14       28.12       28.10       28.08       28.04       28.01       27.96       27.91    
        27.86       27.80       27.73       27.66       27.57       27.49       27.39       27.29       27.17       27.05    
        26.92       26.78       26.63       26.46       26.28       26.07       25.85       25.61       25.34       25.05    
  19    28.15       28.15       28.14       28.12       28.10       28.08       28.04       28.01       27.96       27.91    
        27.86       27.80       27.73       27.66       27.57       27.49       27.39       27.29       27.17       27.05    
        26.92       26.78       26.63       26.46       26.28       26.07       25.85       25.61       25.34       25.05    
  20    28.15       28.15       28.14       28.12       28.10       28.08       28.04       28.01       27.96       27.91    
        27.86       27.80       27.73       27.66       27.57       27.49       27.39       27.29       27.17       27.05    
        26.92       26.78       26.63       26.46       26.28       26.07       25.85       25.61       25.34       25.05    
  21    28.15       28.15       28.14       28.12       28.10       28.08       28.04       28.01       27.96       27.91    
        27.86       27.80       27.73       27.66       27.57       27.49       27.39       27.29       27.17       27.05    
        26.92       26.78       26.63       26.46       26.28       26.07       25.85       25.61       25.34       25.05    
  22    28.15       28.15       28.14       28.12       28.10       28.08       28.04       28.01       27.96       27.91    
        27.86       27.80       27.73       27.66       27.57       27.49       27.39       27.29       27.17       27.05    
        26.92       26.78       26.63       26.46       26.28       26.07       25.85       25.61       25.34       25.05    
  23    28.15       28.15       28.14       28.12       28.10       28.08       28.04       28.01       27.96       27.91    
        27.86       27.80       27.73       27.66       27.57       27.49       27.39       27.29       27.17       27.05    
        26.92       26.78       26.63       26.46       26.28       26.07       25.85       25.61       25.34       25.05    
  24    28.15       28.15       28.14       28.12       28.10       28.08       28.04       28.01       27.96       27.91    
        27.86       27.80       27.73       27.66       27.57       27.49       27.39       27.29       27.17       27.05    
        26.92       26.78       26.63       26.46       26.28       26.07       25.85       25.61       25.34       25.05    
  25    28.15       28.15       28.14       28.12       28.10       28.08       28.04       28.01       27.96       27.91    
        27.86       27.80       27.73       27.66       27.57       27.49       27.39       27.29       27.17       27.05    
        26.92       26.78       26.63       26.46       26.28       26.07       25.85       25.61       25.34       25.05    
  26    28.15       28.15       28.14       28.12       28.10       28.08       28.04       28.01       27.96       27.91    
        27.86       27.80       27.73       27.66       27.57       27.49       27.39       27.29       27.17       27.05    
        26.92       26.78       26.63       26.46       26.28       26.07       25.85       25.61       25.34       25.05    
  27    28.15       28.15       28.14       28.12       28.10       28.08       28.04       28.01       27.96       27.91    
        27.86       27.80       27.73       27.66       27.57       27.49       27.39       27.29       27.17       27.05    
        26.92       26.78       26.63       26.46       26.28       26.07       25.85       25.61       25.34       25.05    
  28    28.15       28.15       28.14       28.12       28.10       28.08       28.04       28.01       27.96       27.91    
        27.86       27.80       27.73       27.66       27.57       27.49       27.39       27.29       27.17       27.05    
        26.92       26.78       26.63       26.46       26.28       26.07       25.85       25.61       25.34       25.05    
  29    28.15       28.15       28.14       28.12       28.10       28.08       28.04       28.01       27.96       27.91    
        27.86       27.80       27.73       27.66       27.57       27.49       27.39       27.29       27.17       27.05    
        26.92       26.78       26.63       26.46       26.28       26.07       25.85       25.61       25.34       25.05    
  30    28.15       28.15       28.14       28.12       28.10       28.08       28.04       28.01       27.96       27.91    
        27.86       27.80       27.73       27.66       27.57       27.49       27.39       27.29       27.17       27.05    
        26.92       26.78       26.63       26.46       26.28       26.07       25.85       25.61       25.34       25.05    

 HEAD WILL BE SAVED ON UNIT 1017 AT END OF TIME STEP    1, STRESS PERIOD   16



         TIME SUMMARY AT END OF TIME STEP    1 IN STRESS PERIOD   16
                    SECONDS     MINUTES      HOURS       DAYS        YEARS
                    -----------------------------------------------------------
   TIME STEP LENGTH 2.59200E+05  4320.0      72.000      3.0000     8.21355E-03
 STRESS PERIOD TIME 2.59200E+05  4320.0      72.000      3.0000     8.21355E-03
         TOTAL TIME 3.66336E+07 6.10560E+05  10176.      424.00      1.1608    
 UBDSV1 SAVING           STO-SS ON UNIT   1016 AT TIME STEP      2, STRESS PERIOD     16
 UBDSV1 SAVING           STO-SY ON UNIT   1016 AT TIME STEP      2, STRESS PERIOD     16
 UBDSV1 SAVING     FLOW-JA-FACE ON UNIT   1016 AT TIME STEP      2, STRESS PERIOD     16
 UBDSV06 SAVING              RCH IN MODEL TEST_TRANS       PACKAGE TEST_TRANS      CONNECTED TO MODEL TEST_TRANS       PACKAGE RCHA             ON UNIT   1016 AT TIME STEP      2, STRESS PERIOD     16
 UBDSV06 SAVING              CHD IN MODEL TEST_TRANS       PACKAGE TEST_TRANS      CONNECTED TO MODEL TEST_TRANS       PACKAGE CHD              ON UNIT   1016 AT TIME STEP      2, STRESS PERIOD     16

 HEAD WILL BE SAVED ON UNIT 1017 AT END OF TIME STEP    2, STRESS PERIOD   16
 UBDSV1 SAVING           STO-SS ON UNIT   1016 AT TIME STEP      3, STRESS PERIOD     16
 UBDSV1 SAVING           STO-SY ON UNIT   1016 AT TIME STEP      3, STRESS PERIOD     16
 UBDSV1 SAVING     FLOW-JA-FACE ON UNIT   1016 AT TIME STEP      3, STRESS PERIOD     16
 UBDSV06 SAVING              RCH IN MODEL TEST_TRANS       PACKAGE TEST_TRANS      CONNECTED TO MODEL TEST_TRANS       PACKAGE RCHA             ON UNIT   1016 AT TIME STEP      3, STRESS PERIOD     16
 UBDSV06 SAVING              CHD IN MODEL TEST_TRANS       PACKAGE TEST_TRANS      CONNECTED TO MODEL TEST_TRANS       PACKAGE CHD              ON UNIT   1016 AT TIME STEP      3, STRESS PERIOD     16

 HEAD WILL BE SAVED ON UNIT 1017 AT END OF TIME STEP    3, STRESS PERIOD   16
 UBDSV1 SAVING           STO-SS ON UNIT   1016 AT TIME STEP      4, STRESS PERIOD     16
 UBDSV1 SAVING           STO-SY ON UNIT   1016 AT TIME STEP      4, STRESS PERIOD     16
 UBDSV1 SAVING     FLOW-JA-FACE ON UNIT   1016 AT TIME STEP      4, STRESS PERIOD     16
 UBDSV06 SAVING              RCH IN MODEL TEST_TRANS       PACKAGE TEST_TRANS      CONNECTED TO MODEL TEST_TRANS       PACKAGE RCHA             ON UNIT   1016 AT TIME STEP      4, STRESS PERIOD     16
 UBDSV06 SAVING              CHD IN MODEL TEST_TRANS       PACKAGE TEST_TRANS      CONNECTED TO MODEL TEST_TRANS       PACKAGE CHD              ON UNIT   1016 AT TIME STEP      4, STRESS PERIOD     16

 HEAD WILL BE SAVED ON UNIT 1017 AT END OF TIME STEP    4, STRESS PERIOD   16
 UBDSV1 SAVING           STO-SS ON UNIT   1016 AT TIME STEP      5, STRESS PERIOD     16
 UBDSV1 SAVING           STO-SY ON UNIT   1016 AT TIME STEP      5, STRESS PERIOD     16
 UBDSV1 SAVING     FLOW-JA-FACE ON UNIT   1016 AT TIME STEP      5, STRESS PERIOD     16
 UBDSV06 SAVING              RCH IN MODEL TEST_TRANS       PACKAGE TEST_TRANS      CONNECTED TO MODEL TEST_TRANS       PACKAGE RCHA             ON UNIT   1016 AT TIME STEP      5, STRESS PERIOD     16
 UBDSV06 SAVING              CHD IN MODEL TEST_TRANS       PACKAGE TEST_TRANS      CONNECTED TO MODEL TEST_TRANS       PACKAGE CHD              ON UNIT   1016 AT TIME STEP      5, STRESS PERIOD     16

 HEAD WILL BE SAVED ON UNIT 1017 AT END OF TIME STEP    5, STRESS PERIOD   16
 UBDSV1 SAVING           STO-SS ON UNIT   1016 AT TIME STEP      6, STRESS PERIOD     16
 UBDSV1 SAVING           STO-SY ON UNIT   1016 AT TIME STEP      6, STRESS PERIOD     16
 UBDSV1 SAVING     FLOW-JA-FACE ON UNIT   1016 AT TIME STEP      6, STRESS PERIOD     16
 UBDSV06 SAVING              RCH IN MODEL TEST_TRANS       PACKAGE TEST_TRANS      CONNECTED TO MODEL TEST_TRANS       PACKAGE RCHA             ON UNIT   1016 AT TIME STEP      6, STRESS PERIOD     16
 UBDSV06 SAVING              CHD IN MODEL TEST_TRANS       PACKAGE TEST_TRANS      CONNECTED TO MODEL TEST_TRANS       PACKAGE CHD              ON UNIT   1016 AT TIME STEP      6, STRESS PERIOD     16

 HEAD WILL BE SAVED ON UNIT 1017 AT END OF TIME STEP    6, STRESS PERIOD   16
 UBDSV1 SAVING           STO-SS ON UNIT   1016 AT TIME STEP      7, STRESS PERIOD     16
 UBDSV1 SAVING           STO-SY ON UNIT   1016 AT TIME STEP      7, STRESS PERIOD     16
 UBDSV1 SAVING     FLOW-JA-FACE ON UNIT   1016 AT TIME STEP      7, STRESS PERIOD     16
 UBDSV06 SAVING              RCH IN MODEL TEST_TRANS       PACKAGE TEST_TRANS      CONNECTED TO MODEL TEST_TRANS       PACKAGE RCHA             ON UNIT   1016 AT TIME STEP      7, STRESS PERIOD     16
 UBDSV06 SAVING              CHD IN MODEL TEST_TRANS       PACKAGE TEST_TRANS      CONNECTED TO MODEL TEST_TRANS       PACKAGE CHD              ON UNIT   1016 AT TIME STEP      7, STRESS PERIOD     16

 HEAD WILL BE SAVED ON UNIT 1017 AT END OF TIME STEP    7, STRESS PERIOD   16
 UBDSV1 SAVING           STO-SS ON UNIT   1016 AT TIME STEP      8, STRESS PERIOD     16
 UBDSV1 SAVING           STO-SY ON UNIT   1016 AT TIME STEP      8, STRESS PERIOD     16
 UBDSV1 SAVING     FLOW-JA-FACE ON UNIT   1016 AT TIME STEP      8, STRESS PERIOD     16
 UBDSV06 SAVING              RCH IN MODEL TEST_TRANS       PACKAGE TEST_TRANS      CONNECTED TO MODEL TEST_TRANS       PACKAGE RCHA             ON UNIT   1016 AT TIME STEP      8, STRESS PERIOD     16
 UBDSV06 SAVING              CHD IN MODEL TEST_TRANS       PACKAGE TEST_TRANS      CONNECTED TO MODEL TEST_TRANS       PACKAGE CHD              ON UNIT   1016 AT TIME STEP      8, STRESS PERIOD     16

 HEAD WILL BE SAVED ON UNIT 1017 AT END OF TIME STEP    8, STRESS PERIOD   16
 UBDSV1 SAVING           STO-SS ON UNIT   1016 AT TIME STEP      9, STRESS PERIOD     16
 UBDSV1 SAVING           STO-SY ON UNIT   1016 AT TIME STEP      9, STRESS PERIOD     16
 UBDSV1 SAVING     FLOW-JA-FACE ON UNIT   1016 AT TIME STEP      9, STRESS PERIOD     16
 UBDSV06 SAVING              RCH IN MODEL TEST_TRANS       PACKAGE TEST_TRANS      CONNECTED TO MODEL TEST_TRANS       PACKAGE RCHA             ON UNIT   1016 AT TIME STEP      9, STRESS PERIOD     16
 UBDSV06 SAVING              CHD IN MODEL TEST_TRANS       PACKAGE TEST_TRANS      CONNECTED TO MODEL TEST_TRANS       PACKAGE CHD              ON UNIT   1016 AT TIME STEP      9, STRESS PERIOD     16

 HEAD WILL BE SAVED ON UNIT 1017 AT END OF TIME STEP    9, STRESS PERIOD   16
 UBDSV1 SAVING           STO-SS ON UNIT   1016 AT TIME STEP     10, STRESS PERIOD     16
 UBDSV1 SAVING           STO-SY ON UNIT   1016 AT TIME STEP     10, STRESS PERIOD     16
 UBDSV1 SAVING     FLOW-JA-FACE ON UNIT   1016 AT TIME STEP     10, STRESS PERIOD     16
 UBDSV06 SAVING              RCH IN MODEL TEST_TRANS       PACKAGE TEST_TRANS      CONNECTED TO MODEL TEST_TRANS       PACKAGE RCHA             ON UNIT   1016 AT TIME STEP     10, STRESS PERIOD     16
 UBDSV06 SAVING              CHD IN MODEL TEST_TRANS       PACKAGE TEST_TRANS      CONNECTED TO MODEL TEST_TRANS       PACKAGE CHD              ON UNIT   1016 AT TIME STEP     10, STRESS PERIOD     16
1
  HEAD IN LAYER   1 AT END OF TIME STEP  10 IN STRESS PERIOD   16
  ---------------------------------------------------------------------------

            1           2           3           4           5           6           7           8           9          10
           11          12          13          14          15          16          17          18          19          20
           21          22          23          24          25          26          27          28          29          30
 ........................................................................................................................
   1    28.07       28.06       28.05       28.04       28.02       27.99       27.96       27.92       27.88       27.83    
        27.78       27.72       27.66       27.59       27.51       27.42       27.33       27.23       27.12       27.01    
        26.88       26.75       26.60       26.44       26.26       26.07       25.86       25.63       25.36       25.05    
   2    28.07       28.06       28.05       28.04       28.02       27.99       27.96       27.92       27.88       27.83    
        27.78       27.72       27.66       27.59       27.51       27.42       27.33       27.23       27.12       27.01    
        26.88       26.75       26.60       26.44       26.26       26.07       25.86       25.63       25.36       25.05    
   3    28.07       28.06       28.05       28.04       28.02       27.99       27.96       27.92       27.88       27.83    
        27.78       27.72       27.66       27.59       27.51       27.42       27.33       27.23       27.12       27.01    
        26.88       26.75       26.60       26.44       26.26       26.07       25.86       25.63       25.36       25.05    
   4    28.07       28.06       28.05       28.04       28.02       27.99       27.96       27.92       27.88       27.83    
        27.78       27.72       27.66       27.59       27.51       27.42       27.33       27.23       27.12       27.01    
        26.88       26.75       26.60       26.44       26.26       26.07       25.86       25.63       25.36       25.05    
   5    28.07       28.06       28.05       28.04       28.02       27.99       27.96       27.92       27.88       27.83    
        27.78       27.72       27.66       27.59       27.51       27.42       27.33       27.23       27.12       27.01    
        26.88       26.75       26.60       26.44       26.26       26.07       25.86       25.63       25.36       25.05    
   6    28.07       28.06       28.05       28.04       28.02       27.99       27.96       27.92       27.88       27.83    
        27.78       27.72       27.66       27.59       27.51       27.42       27.33       27.23       27.12       27.01    
        26.88       26.75       26.60       26.44       26.26       26.07       25.86       25.63       25.36       25.05    
   7    28.07       28.06       28.05       28.04       28.02       27.99       27.96       27.92       27.88       27.83    
        27.78       27.72       27.66       27.59       27.51       27.42       27.33       27.23       27.12       27.01    
        26.88       26.75       26.60       26.44       26.26       26.07       25.86       25.63       25.36       25.05    
   8    28.07       28.06       28.05       28.04       28.02       27.99       27.96       27.92       27.88       27.83    
        27.78       27.72       27.66       27.59       27.51       27.42       27.33       27.23       27.12       27.01    
        26.88       26.75       26.60       26.44       26.26       26.07       25.86       25.63       25.36       25.05    
   9    28.07       28.06       28.05       28.04       28.02       27.99       27.96       27.92       27.88       27.83    
        27.78       27.72       27.66       27.59       27.51       27.42       27.33       27.23       27.12       27.01    
        26.88       26.75       26.60       26.44       26.26       26.07       25.86       25.63       25.36       25.05    
  10    28.07       28.06       28.05       28.04       28.02       27.99       27.96       27.92       27.88       27.83    
        27.78       27.72       27.66       27.59       27.51       27.42       27.33       27.23       27.12       27.01    
        26.88       26.75       26.60       26.44       26.26       26.07       25.86       25.63       25.36       25.05    
  11    28.07       28.06       28.05       28.04       28.02       27.99       27.96       27.92       27.88       27.83    
        27.78       27.72       27.66       27.59       27.51       27.42       27.33       27.23       27.12       27.01    
        26.88       26.75       26.60       26.44       26.26       26.07       25.86       25.63       25.36       25.05    
  12    28.07       28.06       28.05       28.04       28.02       27.99       27.96       27.92       27.88       27.83    
        27.78       27.72       27.66       27.59       27.51       27.42       27.33       27.23       27.12       27.01    
        26.88       26.75       26.60       26.44       26.26       26.07       25.86       25.63       25.36       25.05    
  13    28.07       28.06       28.05       28.04       28.02       27.99       27.96       27.92       27.88       27.83    
        27.78       27.72       27.66       27.59       27.51       27.42       27.33       27.23       27.12       27.01    
        26.88       26.75       26.60       26.44       26.26       26.07       25.86       25.63       25.36       25.05    
  14    28.07       28.06       28.05       28.04       28.02       27.99       27.96       27.92       27.88       27.83    
        27.78       27.72       27.66       27.59       27.51       27.42       27.33       27.23       27.12       27.01    
        26.88       26.75       26.60       26.44       26.26       26.07       25.86       25.63       25.36       25.05    
  15    28.07       28.06       28.05       28.04       28.02       27.99       27.96       27.92       27.88       27.83    
        27.78       27.72       27.66       27.59       27.51       27.42       27.33       27.23       27.12       27.01    
        26.88       26.75       26.60       26.44       26.26       26.07       25.86       25.63       25.36       25.05    
  16    28.07       28.06       28.05       28.04       28.02       27.99       27.96       27.92       27.88       27.83    
        27.78       27.72       27.66       27.59       27.51       27.42       27.33       27.23       27.12       27.01    
        26.88       26.75       26.60       26.44       26.26       26.07       25.86       25.63       25.36       25.05    
  17    28.07       28.06       28.05       28.04       28.02       27.99       27.96       27.92       27.88       27.83    
        27.78       27.72       27.66       27.59       27.51       27.42       27.33       27.23       27.12       27.01    
        26.88       26.75       26.60       26.44       26.26       26.07       25.86       25.63       25.36       25.05    
  18    28.07       28.06       28.05       28.04       28.02       27.99       27.96       27.92       27.88       27.83    
        27.78       27.72       27.66       27.59       27.51       27.42       27.33       27.23       27.12       27.01    
        26.88       26.75       26.60       26.44       26.26       26.07       25.86       25.63       25.36       25.05    
  19    28.07       28.06       28.05       28.04       28.02       27.99       27.96       27.92       27.88       27.83    
        27.78       27.72       27.66       27.59       27.51       27.42       27.33       27.23       27.12       27.01    
        26.88       26.75       26.60       26.44       26.26       26.07       25.86       25.63       25.36       25.05    
  20    28.07       28.06       28.05       28.04       28.02       27.99       27.96       27.92       27.88       27.83    
        27.78       27.72       27.66       27.59       27.51       27.42       27.33       27.23       27.12       27.01    
        26.88       26.75       26.60       26.44       26.26       26.07       25.86       25.63       25.36       25.05    
  21    28.07       28.06       28.05       28.04       28.02       27.99       27.96       27.92       27.88       27.83    
        27.78       27.72       27.66       27.59       27.51       27.42       27.33       27.23       27.12       27.01    
        26.88       26.75       26.60       26.44       26.26       26.07       25.86       25.63       25.36       25.05    
  22    28.07       28.06       28.05       28.04       28.02       27.99       27.96       27.92       27.88       27.83    
        27.78       27.72       27.66       27.59       27.51       27.42       27.33       27.23       27.12       27.01    
        26.88       26.75       26.60       26.44       26.26       26.07       25.86       25.63       25.36       25.05    
  23    28.07       28.06       28.05       28.04       28.02       27.99       27.96       27.92       27.88       27.83    
        27.78       27.72       27.66       27.59       27.51       27.42       27.33       27.23       27.12       27.01    
        26.88       26.75       26.60       26.44       26.26       26.07       25.86       25.63       25.36       25.05    
  24    28.07       28.06       28.05       28.04       28.02       27.99       27.96       27.92       27.88       27.83    
        27.78       27.72       27.66       27.59       27.51       27.42       27.33       27.23       27.12       27.01    
        26.88       26.75       26.60       26.44       26.26       26.07       25.86       25.63       25.36       25.05    
  25    28.07       28.06       28.05       28.04       28.02       27.99       27.96       27.92       27.88       27.83    
        27.78       27.72       27.66       27.59       27.51       27.42       27.33       27.23       27.12       27.01    
        26.88       26.75       26.60       26.44       26.26       26.07       25.86       25.63       25.36       25.05    
  26    28.07       28.06       28.05       28.04       28.02       27.99       27.96       27.92       27.88       27.83    
        27.78       27.72       27.66       27.59       27.51       27.42       27.33       27.23       27.12       27.01    
        26.88       26.75       26.60       26.44       26.26       26.07       25.86       25.63       25.36       25.05    
  27    28.07       28.06       28.05       28.04       28.02       27.99       27.96       27.92       27.88       27.83    
        27.78       27.72       27.66       27.59       27.51       27.42       27.33       27.23       27.12       27.01    
        26.88       26.75       26.60       26.44       26.26       26.07       25.86       25.63       25.36       25.05    
  28    28.07       28.06       28.05       28.04       28.02       27.99       27.96       27.92       27.88       27.83    
        27.78       27.72       27.66       27.59       27.51       27.42       27.33       27.23       27.12       27.01    
        26.88       26.75       26.60       26.44       26.26       26.07       25.86       25.63       25.36       25.05    
  29    28.07       28.06       28.05       28.04       28.02       27.99       27.96       27.92       27.88       27.83    
        27.78       27.72       27.66       27.59       27.51       27.42       27.33       27.23       27.12       27.01    
        26.88       26.75       26.60       26.44       26.26       26.07       25.86       25.63       25.36       25.05    
  30    28.07       28.06       28.05       28.04       28.02       27.99       27.96       27.92       27.88       27.83    
        27.78       27.72       27.66       27.59       27.51       27.42       27.33       27.23       27.12       27.01    
        26.88       26.75       26.60       26.44       26.26       26.07       25.86       25.63       25.36       25.05    

 HEAD WILL BE SAVED ON UNIT 1017 AT END OF TIME STEP   10, STRESS PERIOD   16


  VOLUME BUDGET FOR ENTIRE MODEL AT END OF TIME STEP   10, STRESS PERIOD  16
  ---------------------------------------------------------------------------------------------------

     CUMULATIVE VOLUME      L**3       RATES FOR THIS TIME STEP      L**3/T          PACKAGE NAME    
     ------------------                 ------------------------                     ----------------

           IN:                                      IN:
           ---                                      ---
              STO-SS =          24.9463                STO-SS =       5.5516E-02     STORAGE         
              STO-SY =       15938.7986                STO-SY =          34.5063     STORAGE         
                 RCH =       79253.4522                   RCH =         143.0141     RCHA            
                 CHD =        1052.4133                   CHD =           0.0000     CHD             

            TOTAL IN =       96269.6103              TOTAL IN =         177.5759

          OUT:                                     OUT:
          ----                                     ----
              STO-SS =          19.7014                STO-SS =           0.0000     STORAGE         
              STO-SY =       12829.6652                STO-SY =           0.0000     STORAGE         
                 RCH =           0.0000                   RCH =           0.0000     RCHA            
                 CHD =       83419.9473                   CHD =         177.5481     CHD             

           TOTAL OUT =       96269.3138             TOTAL OUT =         177.5481

            IN - OUT =           0.2966              IN - OUT =       2.7850E-02

 PERCENT DISCREPANCY =           0.00     PERCENT DISCREPANCY =           0.02




         TIME SUMMARY AT END OF TIME STEP   10 IN STRESS PERIOD   16
                    SECONDS     MINUTES      HOURS       DAYS        YEARS
                    -----------------------------------------------------------
   TIME STEP LENGTH 2.59200E+05  4320.0      72.000      3.0000     8.21355E-03
 STRESS PERIOD TIME 2.59200E+06  43200.      720.00      30.000     8.21355E-02
         TOTAL TIME 3.89664E+07 6.49440E+05  10824.      451.00      1.2348    

 OUTPUT CONTROL FOR STRESS PERIOD 17 IS REPEATED USING SETTINGS FROM A PREVIOUS STRESS PERIOD.


 STRESS PERIOD 17 IS TRANSIENT


                 RECHARGE =  0.1232880E-02
 UBDSV1 SAVING           STO-SS ON UNIT   1016 AT TIME STEP      1, STRESS PERIOD     17
 UBDSV1 SAVING           STO-SY ON UNIT   1016 AT TIME STEP      1, STRESS PERIOD     17
 UBDSV1 SAVING     FLOW-JA-FACE ON UNIT   1016 AT TIME STEP      1, STRESS PERIOD     17
 UBDSV06 SAVING              RCH IN MODEL TEST_TRANS       PACKAGE TEST_TRANS      CONNECTED TO MODEL TEST_TRANS       PACKAGE RCHA             ON UNIT   1016 AT TIME STEP      1, STRESS PERIOD     17
 UBDSV06 SAVING              CHD IN MODEL TEST_TRANS       PACKAGE TEST_TRANS      CONNECTED TO MODEL TEST_TRANS       PACKAGE CHD              ON UNIT   1016 AT TIME STEP      1, STRESS PERIOD     17
1
  HEAD IN LAYER   1 AT END OF TIME STEP   1 IN STRESS PERIOD   17
  ---------------------------------------------------------------------------

            1           2           3           4           5           6           7           8           9          10
           11          12          13          14          15          16          17          18          19          20
           21          22          23          24          25          26          27          28          29          30
 ........................................................................................................................
   1    28.05       28.05       28.04       28.02       28.00       27.98       27.95       27.91       27.87       27.82    
        27.77       27.71       27.64       27.57       27.50       27.41       27.32       27.22       27.11       27.00    
        26.87       26.74       26.59       26.43       26.26       26.07       25.87       25.64       25.40       25.13    
   2    28.05       28.05       28.04       28.02       28.00       27.98       27.95       27.91       27.87       27.82    
        27.77       27.71       27.64       27.57       27.50       27.41       27.32       27.22       27.11       27.00    
        26.87       26.74       26.59       26.43       26.26       26.07       25.87       25.64       25.40       25.13    
   3    28.05       28.05       28.04       28.02       28.00       27.98       27.95       27.91       27.87       27.82    
        27.77       27.71       27.64       27.57       27.50       27.41       27.32       27.22       27.11       27.00    
        26.87       26.74       26.59       26.43       26.26       26.07       25.87       25.64       25.40       25.13    
   4    28.05       28.05       28.04       28.02       28.00       27.98       27.95       27.91       27.87       27.82    
        27.77       27.71       27.64       27.57       27.50       27.41       27.32       27.22       27.11       27.00    
        26.87       26.74       26.59       26.43       26.26       26.07       25.87       25.64       25.40       25.13    
   5    28.05       28.05       28.04       28.02       28.00       27.98       27.95       27.91       27.87       27.82    
        27.77       27.71       27.64       27.57       27.50       27.41       27.32       27.22       27.11       27.00    
        26.87       26.74       26.59       26.43       26.26       26.07       25.87       25.64       25.40       25.13    
   6    28.05       28.05       28.04       28.02       28.00       27.98       27.95       27.91       27.87       27.82    
        27.77       27.71       27.64       27.57       27.50       27.41       27.32       27.22       27.11       27.00    
        26.87       26.74       26.59       26.43       26.26       26.07       25.87       25.64       25.40       25.13    
   7    28.05       28.05       28.04       28.02       28.00       27.98       27.95       27.91       27.87       27.82    
        27.77       27.71       27.64       27.57       27.50       27.41       27.32       27.22       27.11       27.00    
        26.87       26.74       26.59       26.43       26.26       26.07       25.87       25.64       25.40       25.13    
   8    28.05       28.05       28.04       28.02       28.00       27.98       27.95       27.91       27.87       27.82    
        27.77       27.71       27.64       27.57       27.50       27.41       27.32       27.22       27.11       27.00    
        26.87       26.74       26.59       26.43       26.26       26.07       25.87       25.64       25.40       25.13    
   9    28.05       28.05       28.04       28.02       28.00       27.98       27.95       27.91       27.87       27.82    
        27.77       27.71       27.64       27.57       27.50       27.41       27.32       27.22       27.11       27.00    
        26.87       26.74       26.59       26.43       26.26       26.07       25.87       25.64       25.40       25.13    
  10    28.05       28.05       28.04       28.02       28.00       27.98       27.95       27.91       27.87       27.82    
        27.77       27.71       27.64       27.57       27.50       27.41       27.32       27.22       27.11       27.00    
        26.87       26.74       26.59       26.43       26.26       26.07       25.87       25.64       25.40       25.13    
  11    28.05       28.05       28.04       28.02       28.00       27.98       27.95       27.91       27.87       27.82    
        27.77       27.71       27.64       27.57       27.50       27.41       27.32       27.22       27.11       27.00    
        26.87       26.74       26.59       26.43       26.26       26.07       25.87       25.64       25.40       25.13    
  12    28.05       28.05       28.04       28.02       28.00       27.98       27.95       27.91       27.87       27.82    
        27.77       27.71       27.64       27.57       27.50       27.41       27.32       27.22       27.11       27.00    
        26.87       26.74       26.59       26.43       26.26       26.07       25.87       25.64       25.40       25.13    
  13    28.05       28.05       28.04       28.02       28.00       27.98       27.95       27.91       27.87       27.82    
        27.77       27.71       27.64       27.57       27.50       27.41       27.32       27.22       27.11       27.00    
        26.87       26.74       26.59       26.43       26.26       26.07       25.87       25.64       25.40       25.13    
  14    28.05       28.05       28.04       28.02       28.00       27.98       27.95       27.91       27.87       27.82    
        27.77       27.71       27.64       27.57       27.50       27.41       27.32       27.22       27.11       27.00    
        26.87       26.74       26.59       26.43       26.26       26.07       25.87       25.64       25.40       25.13    
  15    28.05       28.05       28.04       28.02       28.00       27.98       27.95       27.91       27.87       27.82    
        27.77       27.71       27.64       27.57       27.50       27.41       27.32       27.22       27.11       27.00    
        26.87       26.74       26.59       26.43       26.26       26.07       25.87       25.64       25.40       25.13    
  16    28.05       28.05       28.04       28.02       28.00       27.98       27.95       27.91       27.87       27.82    
        27.77       27.71       27.64       27.57       27.50       27.41       27.32       27.22       27.11       27.00    
        26.87       26.74       26.59       26.43       26.26       26.07       25.87       25.64       25.40       25.13    
  17    28.05       28.05       28.04       28.02       28.00       27.98       27.95       27.91       27.87       27.82    
        27.77       27.71       27.64       27.57       27.50       27.41       27.32       27.22       27.11       27.00    
        26.87       26.74       26.59       26.43       26.26       26.07       25.87       25.64       25.40       25.13    
  18    28.05       28.05       28.04       28.02       28.00       27.98       27.95       27.91       27.87       27.82    
        27.77       27.71       27.64       27.57       27.50       27.41       27.32       27.22       27.11       27.00    
        26.87       26.74       26.59       26.43       26.26       26.07       25.87       25.64       25.40       25.13    
  19    28.05       28.05       28.04       28.02       28.00       27.98       27.95       27.91       27.87       27.82    
        27.77       27.71       27.64       27.57       27.50       27.41       27.32       27.22       27.11       27.00    
        26.87       26.74       26.59       26.43       26.26       26.07       25.87       25.64       25.40       25.13    
  20    28.05       28.05       28.04       28.02       28.00       27.98       27.95       27.91       27.87       27.82    
        27.77       27.71       27.64       27.57       27.50       27.41       27.32       27.22       27.11       27.00    
        26.87       26.74       26.59       26.43       26.26       26.07       25.87       25.64       25.40       25.13    
  21    28.05       28.05       28.04       28.02       28.00       27.98       27.95       27.91       27.87       27.82    
        27.77       27.71       27.64       27.57       27.50       27.41       27.32       27.22       27.11       27.00    
        26.87       26.74       26.59       26.43       26.26       26.07       25.87       25.64       25.40       25.13    
  22    28.05       28.05       28.04       28.02       28.00       27.98       27.95       27.91       27.87       27.82    
        27.77       27.71       27.64       27.57       27.50       27.41       27.32       27.22       27.11       27.00    
        26.87       26.74       26.59       26.43       26.26       26.07       25.87       25.64       25.40       25.13    
  23    28.05       28.05       28.04       28.02       28.00       27.98       27.95       27.91       27.87       27.82    
        27.77       27.71       27.64       27.57       27.50       27.41       27.32       27.22       27.11       27.00    
        26.87       26.74       26.59       26.43       26.26       26.07       25.87       25.64       25.40       25.13    
  24    28.05       28.05       28.04       28.02       28.00       27.98       27.95       27.91       27.87       27.82    
        27.77       27.71       27.64       27.57       27.50       27.41       27.32       27.22       27.11       27.00    
        26.87       26.74       26.59       26.43       26.26       26.07       25.87       25.64       25.40       25.13    
  25    28.05       28.05       28.04       28.02       28.00       27.98       27.95       27.91       27.87       27.82    
        27.77       27.71       27.64       27.57       27.50       27.41       27.32       27.22       27.11       27.00    
        26.87       26.74       26.59       26.43       26.26       26.07       25.87       25.64       25.40       25.13    
  26    28.05       28.05       28.04       28.02       28.00       27.98       27.95       27.91       27.87       27.82    
        27.77       27.71       27.64       27.57       27.50       27.41       27.32       27.22       27.11       27.00    
        26.87       26.74       26.59       26.43       26.26       26.07       25.87       25.64       25.40       25.13    
  27    28.05       28.05       28.04       28.02       28.00       27.98       27.95       27.91       27.87       27.82    
        27.77       27.71       27.64       27.57       27.50       27.41       27.32       27.22       27.11       27.00    
        26.87       26.74       26.59       26.43       26.26       26.07       25.87       25.64       25.40       25.13    
  28    28.05       28.05       28.04       28.02       28.00       27.98       27.95       27.91       27.87       27.82    
        27.77       27.71       27.64       27.57       27.50       27.41       27.32       27.22       27.11       27.00    
        26.87       26.74       26.59       26.43       26.26       26.07       25.87       25.64       25.40       25.13    
  29    28.05       28.05       28.04       28.02       28.00       27.98       27.95       27.91       27.87       27.82    
        27.77       27.71       27.64       27.57       27.50       27.41       27.32       27.22       27.11       27.00    
        26.87       26.74       26.59       26.43       26.26       26.07       25.87       25.64       25.40       25.13    
  30    28.05       28.05       28.04       28.02       28.00       27.98       27.95       27.91       27.87       27.82    
        27.77       27.71       27.64       27.57       27.50       27.41       27.32       27.22       27.11       27.00    
        26.87       26.74       26.59       26.43       26.26       26.07       25.87       25.64       25.40       25.13    

 HEAD WILL BE SAVED ON UNIT 1017 AT END OF TIME STEP    1, STRESS PERIOD   17



         TIME SUMMARY AT END OF TIME STEP    1 IN STRESS PERIOD   17
                    SECONDS     MINUTES      HOURS       DAYS        YEARS
                    -----------------------------------------------------------
   TIME STEP LENGTH 2.59200E+05  4320.0      72.000      3.0000     8.21355E-03
 STRESS PERIOD TIME 2.59200E+05  4320.0      72.000      3.0000     8.21355E-03
         TOTAL TIME 3.92256E+07 6.53760E+05  10896.      454.00      1.2430    
 UBDSV1 SAVING           STO-SS ON UNIT   1016 AT TIME STEP      2, STRESS PERIOD     17
 UBDSV1 SAVING           STO-SY ON UNIT   1016 AT TIME STEP      2, STRESS PERIOD     17
 UBDSV1 SAVING     FLOW-JA-FACE ON UNIT   1016 AT TIME STEP      2, STRESS PERIOD     17
 UBDSV06 SAVING              RCH IN MODEL TEST_TRANS       PACKAGE TEST_TRANS      CONNECTED TO MODEL TEST_TRANS       PACKAGE RCHA             ON UNIT   1016 AT TIME STEP      2, STRESS PERIOD     17
 UBDSV06 SAVING              CHD IN MODEL TEST_TRANS       PACKAGE TEST_TRANS      CONNECTED TO MODEL TEST_TRANS       PACKAGE CHD              ON UNIT   1016 AT TIME STEP      2, STRESS PERIOD     17

 HEAD WILL BE SAVED ON UNIT 1017 AT END OF TIME STEP    2, STRESS PERIOD   17
 UBDSV1 SAVING           STO-SS ON UNIT   1016 AT TIME STEP      3, STRESS PERIOD     17
 UBDSV1 SAVING           STO-SY ON UNIT   1016 AT TIME STEP      3, STRESS PERIOD     17
 UBDSV1 SAVING     FLOW-JA-FACE ON UNIT   1016 AT TIME STEP      3, STRESS PERIOD     17
 UBDSV06 SAVING              RCH IN MODEL TEST_TRANS       PACKAGE TEST_TRANS      CONNECTED TO MODEL TEST_TRANS       PACKAGE RCHA             ON UNIT   1016 AT TIME STEP      3, STRESS PERIOD     17
 UBDSV06 SAVING              CHD IN MODEL TEST_TRANS       PACKAGE TEST_TRANS      CONNECTED TO MODEL TEST_TRANS       PACKAGE CHD              ON UNIT   1016 AT TIME STEP      3, STRESS PERIOD     17

 HEAD WILL BE SAVED ON UNIT 1017 AT END OF TIME STEP    3, STRESS PERIOD   17
 UBDSV1 SAVING           STO-SS ON UNIT   1016 AT TIME STEP      4, STRESS PERIOD     17
 UBDSV1 SAVING           STO-SY ON UNIT   1016 AT TIME STEP      4, STRESS PERIOD     17
 UBDSV1 SAVING     FLOW-JA-FACE ON UNIT   1016 AT TIME STEP      4, STRESS PERIOD     17
 UBDSV06 SAVING              RCH IN MODEL TEST_TRANS       PACKAGE TEST_TRANS      CONNECTED TO MODEL TEST_TRANS       PACKAGE RCHA             ON UNIT   1016 AT TIME STEP      4, STRESS PERIOD     17
 UBDSV06 SAVING              CHD IN MODEL TEST_TRANS       PACKAGE TEST_TRANS      CONNECTED TO MODEL TEST_TRANS       PACKAGE CHD              ON UNIT   1016 AT TIME STEP      4, STRESS PERIOD     17

 HEAD WILL BE SAVED ON UNIT 1017 AT END OF TIME STEP    4, STRESS PERIOD   17
 UBDSV1 SAVING           STO-SS ON UNIT   1016 AT TIME STEP      5, STRESS PERIOD     17
 UBDSV1 SAVING           STO-SY ON UNIT   1016 AT TIME STEP      5, STRESS PERIOD     17
 UBDSV1 SAVING     FLOW-JA-FACE ON UNIT   1016 AT TIME STEP      5, STRESS PERIOD     17
 UBDSV06 SAVING              RCH IN MODEL TEST_TRANS       PACKAGE TEST_TRANS      CONNECTED TO MODEL TEST_TRANS       PACKAGE RCHA             ON UNIT   1016 AT TIME STEP      5, STRESS PERIOD     17
 UBDSV06 SAVING              CHD IN MODEL TEST_TRANS       PACKAGE TEST_TRANS      CONNECTED TO MODEL TEST_TRANS       PACKAGE CHD              ON UNIT   1016 AT TIME STEP      5, STRESS PERIOD     17

 HEAD WILL BE SAVED ON UNIT 1017 AT END OF TIME STEP    5, STRESS PERIOD   17
 UBDSV1 SAVING           STO-SS ON UNIT   1016 AT TIME STEP      6, STRESS PERIOD     17
 UBDSV1 SAVING           STO-SY ON UNIT   1016 AT TIME STEP      6, STRESS PERIOD     17
 UBDSV1 SAVING     FLOW-JA-FACE ON UNIT   1016 AT TIME STEP      6, STRESS PERIOD     17
 UBDSV06 SAVING              RCH IN MODEL TEST_TRANS       PACKAGE TEST_TRANS      CONNECTED TO MODEL TEST_TRANS       PACKAGE RCHA             ON UNIT   1016 AT TIME STEP      6, STRESS PERIOD     17
 UBDSV06 SAVING              CHD IN MODEL TEST_TRANS       PACKAGE TEST_TRANS      CONNECTED TO MODEL TEST_TRANS       PACKAGE CHD              ON UNIT   1016 AT TIME STEP      6, STRESS PERIOD     17

 HEAD WILL BE SAVED ON UNIT 1017 AT END OF TIME STEP    6, STRESS PERIOD   17
 UBDSV1 SAVING           STO-SS ON UNIT   1016 AT TIME STEP      7, STRESS PERIOD     17
 UBDSV1 SAVING           STO-SY ON UNIT   1016 AT TIME STEP      7, STRESS PERIOD     17
 UBDSV1 SAVING     FLOW-JA-FACE ON UNIT   1016 AT TIME STEP      7, STRESS PERIOD     17
 UBDSV06 SAVING              RCH IN MODEL TEST_TRANS       PACKAGE TEST_TRANS      CONNECTED TO MODEL TEST_TRANS       PACKAGE RCHA             ON UNIT   1016 AT TIME STEP      7, STRESS PERIOD     17
 UBDSV06 SAVING              CHD IN MODEL TEST_TRANS       PACKAGE TEST_TRANS      CONNECTED TO MODEL TEST_TRANS       PACKAGE CHD              ON UNIT   1016 AT TIME STEP      7, STRESS PERIOD     17

 HEAD WILL BE SAVED ON UNIT 1017 AT END OF TIME STEP    7, STRESS PERIOD   17
 UBDSV1 SAVING           STO-SS ON UNIT   1016 AT TIME STEP      8, STRESS PERIOD     17
 UBDSV1 SAVING           STO-SY ON UNIT   1016 AT TIME STEP      8, STRESS PERIOD     17
 UBDSV1 SAVING     FLOW-JA-FACE ON UNIT   1016 AT TIME STEP      8, STRESS PERIOD     17
 UBDSV06 SAVING              RCH IN MODEL TEST_TRANS       PACKAGE TEST_TRANS      CONNECTED TO MODEL TEST_TRANS       PACKAGE RCHA             ON UNIT   1016 AT TIME STEP      8, STRESS PERIOD     17
 UBDSV06 SAVING              CHD IN MODEL TEST_TRANS       PACKAGE TEST_TRANS      CONNECTED TO MODEL TEST_TRANS       PACKAGE CHD              ON UNIT   1016 AT TIME STEP      8, STRESS PERIOD     17

 HEAD WILL BE SAVED ON UNIT 1017 AT END OF TIME STEP    8, STRESS PERIOD   17
 UBDSV1 SAVING           STO-SS ON UNIT   1016 AT TIME STEP      9, STRESS PERIOD     17
 UBDSV1 SAVING           STO-SY ON UNIT   1016 AT TIME STEP      9, STRESS PERIOD     17
 UBDSV1 SAVING     FLOW-JA-FACE ON UNIT   1016 AT TIME STEP      9, STRESS PERIOD     17
 UBDSV06 SAVING              RCH IN MODEL TEST_TRANS       PACKAGE TEST_TRANS      CONNECTED TO MODEL TEST_TRANS       PACKAGE RCHA             ON UNIT   1016 AT TIME STEP      9, STRESS PERIOD     17
 UBDSV06 SAVING              CHD IN MODEL TEST_TRANS       PACKAGE TEST_TRANS      CONNECTED TO MODEL TEST_TRANS       PACKAGE CHD              ON UNIT   1016 AT TIME STEP      9, STRESS PERIOD     17

 HEAD WILL BE SAVED ON UNIT 1017 AT END OF TIME STEP    9, STRESS PERIOD   17
 UBDSV1 SAVING           STO-SS ON UNIT   1016 AT TIME STEP     10, STRESS PERIOD     17
 UBDSV1 SAVING           STO-SY ON UNIT   1016 AT TIME STEP     10, STRESS PERIOD     17
 UBDSV1 SAVING     FLOW-JA-FACE ON UNIT   1016 AT TIME STEP     10, STRESS PERIOD     17
 UBDSV06 SAVING              RCH IN MODEL TEST_TRANS       PACKAGE TEST_TRANS      CONNECTED TO MODEL TEST_TRANS       PACKAGE RCHA             ON UNIT   1016 AT TIME STEP     10, STRESS PERIOD     17
 UBDSV06 SAVING              CHD IN MODEL TEST_TRANS       PACKAGE TEST_TRANS      CONNECTED TO MODEL TEST_TRANS       PACKAGE CHD              ON UNIT   1016 AT TIME STEP     10, STRESS PERIOD     17
1
  HEAD IN LAYER   1 AT END OF TIME STEP  10 IN STRESS PERIOD   17
  ---------------------------------------------------------------------------

            1           2           3           4           5           6           7           8           9          10
           11          12          13          14          15          16          17          18          19          20
           21          22          23          24          25          26          27          28          29          30
 ........................................................................................................................
   1    27.93       27.93       27.92       27.90       27.88       27.86       27.83       27.79       27.75       27.71    
        27.66       27.60       27.54       27.47       27.39       27.31       27.23       27.13       27.03       26.92    
        26.80       26.67       26.53       26.39       26.22       26.05       25.85       25.64       25.40       25.13    
   2    27.93       27.93       27.92       27.90       27.88       27.86       27.83       27.79       27.75       27.71    
        27.66       27.60       27.54       27.47       27.39       27.31       27.23       27.13       27.03       26.92    
        26.80       26.67       26.53       26.39       26.22       26.05       25.85       25.64       25.40       25.13    
   3    27.93       27.93       27.92       27.90       27.88       27.86       27.83       27.79       27.75       27.71    
        27.66       27.60       27.54       27.47       27.39       27.31       27.23       27.13       27.03       26.92    
        26.80       26.67       26.53       26.39       26.22       26.05       25.85       25.64       25.40       25.13    
   4    27.93       27.93       27.92       27.90       27.88       27.86       27.83       27.79       27.75       27.71    
        27.66       27.60       27.54       27.47       27.39       27.31       27.23       27.13       27.03       26.92    
        26.80       26.67       26.53       26.39       26.22       26.05       25.85       25.64       25.40       25.13    
   5    27.93       27.93       27.92       27.90       27.88       27.86       27.83       27.79       27.75       27.71    
        27.66       27.60       27.54       27.47       27.39       27.31       27.23       27.13       27.03       26.92    
        26.80       26.67       26.53       26.39       26.22       26.05       25.85       25.64       25.40       25.13    
   6    27.93       27.93       27.92       27.90       27.88       27.86       27.83       27.79       27.75       27.71    
        27.66       27.60       27.54       27.47       27.39       27.31       27.23       27.13       27.03       26.92    
        26.80       26.67       26.53       26.39       26.22       26.05       25.85       25.64       25.40       25.13    
   7    27.93       27.93       27.92       27.90       27.88       27.86       27.83       27.79       27.75       27.71    
        27.66       27.60       27.54       27.47       27.39       27.31       27.23       27.13       27.03       26.92    
        26.80       26.67       26.53       26.39       26.22       26.05       25.85       25.64       25.40       25.13    
   8    27.93       27.93       27.92       27.90       27.88       27.86       27.83       27.79       27.75       27.71    
        27.66       27.60       27.54       27.47       27.39       27.31       27.23       27.13       27.03       26.92    
        26.80       26.67       26.53       26.39       26.22       26.05       25.85       25.64       25.40       25.13    
   9    27.93       27.93       27.92       27.90       27.88       27.86       27.83       27.79       27.75       27.71    
        27.66       27.60       27.54       27.47       27.39       27.31       27.23       27.13       27.03       26.92    
        26.80       26.67       26.53       26.39       26.22       26.05       25.85       25.64       25.40       25.13    
  10    27.93       27.93       27.92       27.90       27.88       27.86       27.83       27.79       27.75       27.71    
        27.66       27.60       27.54       27.47       27.39       27.31       27.23       27.13       27.03       26.92    
        26.80       26.67       26.53       26.39       26.22       26.05       25.85       25.64       25.40       25.13    
  11    27.93       27.93       27.92       27.90       27.88       27.86       27.83       27.79       27.75       27.71    
        27.66       27.60       27.54       27.47       27.39       27.31       27.23       27.13       27.03       26.92    
        26.80       26.67       26.53       26.39       26.22       26.05       25.85       25.64       25.40       25.13    
  12    27.93       27.93       27.92       27.90       27.88       27.86       27.83       27.79       27.75       27.71    
        27.66       27.60       27.54       27.47       27.39       27.31       27.23       27.13       27.03       26.92    
        26.80       26.67       26.53       26.39       26.22       26.05       25.85       25.64       25.40       25.13    
  13    27.93       27.93       27.92       27.90       27.88       27.86       27.83       27.79       27.75       27.71    
        27.66       27.60       27.54       27.47       27.39       27.31       27.23       27.13       27.03       26.92    
        26.80       26.67       26.53       26.39       26.22       26.05       25.85       25.64       25.40       25.13    
  14    27.93       27.93       27.92       27.90       27.88       27.86       27.83       27.79       27.75       27.71    
        27.66       27.60       27.54       27.47       27.39       27.31       27.23       27.13       27.03       26.92    
        26.80       26.67       26.53       26.39       26.22       26.05       25.85       25.64       25.40       25.13    
  15    27.93       27.93       27.92       27.90       27.88       27.86       27.83       27.79       27.75       27.71    
        27.66       27.60       27.54       27.47       27.39       27.31       27.23       27.13       27.03       26.92    
        26.80       26.67       26.53       26.39       26.22       26.05       25.85       25.64       25.40       25.13    
  16    27.93       27.93       27.92       27.90       27.88       27.86       27.83       27.79       27.75       27.71    
        27.66       27.60       27.54       27.47       27.39       27.31       27.23       27.13       27.03       26.92    
        26.80       26.67       26.53       26.39       26.22       26.05       25.85       25.64       25.40       25.13    
  17    27.93       27.93       27.92       27.90       27.88       27.86       27.83       27.79       27.75       27.71    
        27.66       27.60       27.54       27.47       27.39       27.31       27.23       27.13       27.03       26.92    
        26.80       26.67       26.53       26.39       26.22       26.05       25.85       25.64       25.40       25.13    
  18    27.93       27.93       27.92       27.90       27.88       27.86       27.83       27.79       27.75       27.71    
        27.66       27.60       27.54       27.47       27.39       27.31       27.23       27.13       27.03       26.92    
        26.80       26.67       26.53       26.39       26.22       26.05       25.85       25.64       25.40       25.13    
  19    27.93       27.93       27.92       27.90       27.88       27.86       27.83       27.79       27.75       27.71    
        27.66       27.60       27.54       27.47       27.39       27.31       27.23       27.13       27.03       26.92    
        26.80       26.67       26.53       26.39       26.22       26.05       25.85       25.64       25.40       25.13    
  20    27.93       27.93       27.92       27.90       27.88       27.86       27.83       27.79       27.75       27.71    
        27.66       27.60       27.54       27.47       27.39       27.31       27.23       27.13       27.03       26.92    
        26.80       26.67       26.53       26.39       26.22       26.05       25.85       25.64       25.40       25.13    
  21    27.93       27.93       27.92       27.90       27.88       27.86       27.83       27.79       27.75       27.71    
        27.66       27.60       27.54       27.47       27.39       27.31       27.23       27.13       27.03       26.92    
        26.80       26.67       26.53       26.39       26.22       26.05       25.85       25.64       25.40       25.13    
  22    27.93       27.93       27.92       27.90       27.88       27.86       27.83       27.79       27.75       27.71    
        27.66       27.60       27.54       27.47       27.39       27.31       27.23       27.13       27.03       26.92    
        26.80       26.67       26.53       26.39       26.22       26.05       25.85       25.64       25.40       25.13    
  23    27.93       27.93       27.92       27.90       27.88       27.86       27.83       27.79       27.75       27.71    
        27.66       27.60       27.54       27.47       27.39       27.31       27.23       27.13       27.03       26.92    
        26.80       26.67       26.53       26.39       26.22       26.05       25.85       25.64       25.40       25.13    
  24    27.93       27.93       27.92       27.90       27.88       27.86       27.83       27.79       27.75       27.71    
        27.66       27.60       27.54       27.47       27.39       27.31       27.23       27.13       27.03       26.92    
        26.80       26.67       26.53       26.39       26.22       26.05       25.85       25.64       25.40       25.13    
  25    27.93       27.93       27.92       27.90       27.88       27.86       27.83       27.79       27.75       27.71    
        27.66       27.60       27.54       27.47       27.39       27.31       27.23       27.13       27.03       26.92    
        26.80       26.67       26.53       26.39       26.22       26.05       25.85       25.64       25.40       25.13    
  26    27.93       27.93       27.92       27.90       27.88       27.86       27.83       27.79       27.75       27.71    
        27.66       27.60       27.54       27.47       27.39       27.31       27.23       27.13       27.03       26.92    
        26.80       26.67       26.53       26.39       26.22       26.05       25.85       25.64       25.40       25.13    
  27    27.93       27.93       27.92       27.90       27.88       27.86       27.83       27.79       27.75       27.71    
        27.66       27.60       27.54       27.47       27.39       27.31       27.23       27.13       27.03       26.92    
        26.80       26.67       26.53       26.39       26.22       26.05       25.85       25.64       25.40       25.13    
  28    27.93       27.93       27.92       27.90       27.88       27.86       27.83       27.79       27.75       27.71    
        27.66       27.60       27.54       27.47       27.39       27.31       27.23       27.13       27.03       26.92    
        26.80       26.67       26.53       26.39       26.22       26.05       25.85       25.64       25.40       25.13    
  29    27.93       27.93       27.92       27.90       27.88       27.86       27.83       27.79       27.75       27.71    
        27.66       27.60       27.54       27.47       27.39       27.31       27.23       27.13       27.03       26.92    
        26.80       26.67       26.53       26.39       26.22       26.05       25.85       25.64       25.40       25.13    
  30    27.93       27.93       27.92       27.90       27.88       27.86       27.83       27.79       27.75       27.71    
        27.66       27.60       27.54       27.47       27.39       27.31       27.23       27.13       27.03       26.92    
        26.80       26.67       26.53       26.39       26.22       26.05       25.85       25.64       25.40       25.13    

 HEAD WILL BE SAVED ON UNIT 1017 AT END OF TIME STEP   10, STRESS PERIOD   17


  VOLUME BUDGET FOR ENTIRE MODEL AT END OF TIME STEP   10, STRESS PERIOD  17
  ---------------------------------------------------------------------------------------------------

     CUMULATIVE VOLUME      L**3       RATES FOR THIS TIME STEP      L**3/T          PACKAGE NAME    
     ------------------                 ------------------------                     ----------------

           IN:                                      IN:
           ---                                      ---
              STO-SS =          27.6450                STO-SS =       8.4119E-02     STORAGE         
              STO-SY =       17622.2634                STO-SY =          52.7737     STORAGE         
                 RCH =       82471.2690                   RCH =         107.2606     RCHA            
                 CHD =        1052.4133                   CHD =           0.0000     CHD             

            TOTAL IN =      101173.5906              TOTAL IN =         160.1184

          OUT:                                     OUT:
          ----                                     ----
              STO-SS =          19.7709                STO-SS =           0.0000     STORAGE         
              STO-SY =       12879.3079                STO-SY =           0.0000     STORAGE         
                 RCH =           0.0000                   RCH =           0.0000     RCHA            
                 CHD =       88274.0736                   CHD =         160.1153     CHD             

           TOTAL OUT =      101173.1524             TOTAL OUT =         160.1153

            IN - OUT =           0.4382              IN - OUT =       3.1653E-03

 PERCENT DISCREPANCY =           0.00     PERCENT DISCREPANCY =           0.00




         TIME SUMMARY AT END OF TIME STEP   10 IN STRESS PERIOD   17
                    SECONDS     MINUTES      HOURS       DAYS        YEARS
                    -----------------------------------------------------------
   TIME STEP LENGTH 2.59200E+05  4320.0      72.000      3.0000     8.21355E-03
 STRESS PERIOD TIME 2.59200E+06  43200.      720.00      30.000     8.21355E-02
         TOTAL TIME 4.15584E+07 6.92640E+05  11544.      481.00      1.3169    

 OUTPUT CONTROL FOR STRESS PERIOD 18 IS REPEATED USING SETTINGS FROM A PREVIOUS STRESS PERIOD.


 STRESS PERIOD 18 IS TRANSIENT


                 RECHARGE =  0.8219178E-03
 UBDSV1 SAVING           STO-SS ON UNIT   1016 AT TIME STEP      1, STRESS PERIOD     18
 UBDSV1 SAVING           STO-SY ON UNIT   1016 AT TIME STEP      1, STRESS PERIOD     18
 UBDSV1 SAVING     FLOW-JA-FACE ON UNIT   1016 AT TIME STEP      1, STRESS PERIOD     18
 UBDSV06 SAVING              RCH IN MODEL TEST_TRANS       PACKAGE TEST_TRANS      CONNECTED TO MODEL TEST_TRANS       PACKAGE RCHA             ON UNIT   1016 AT TIME STEP      1, STRESS PERIOD     18
 UBDSV06 SAVING              CHD IN MODEL TEST_TRANS       PACKAGE TEST_TRANS      CONNECTED TO MODEL TEST_TRANS       PACKAGE CHD              ON UNIT   1016 AT TIME STEP      1, STRESS PERIOD     18
1
  HEAD IN LAYER   1 AT END OF TIME STEP   1 IN STRESS PERIOD   18
  ---------------------------------------------------------------------------

            1           2           3           4           5           6           7           8           9          10
           11          12          13          14          15          16          17          18          19          20
           21          22          23          24          25          26          27          28          29          30
 ........................................................................................................................
   1    27.91       27.91       27.90       27.88       27.86       27.84       27.81       27.77       27.73       27.69    
        27.64       27.58       27.52       27.45       27.38       27.30       27.21       27.12       27.02       26.91    
        26.80       26.68       26.56       26.44       26.32       26.21       26.14       26.14       26.26       26.56    
   2    27.91       27.91       27.90       27.88       27.86       27.84       27.81       27.77       27.73       27.69    
        27.64       27.58       27.52       27.45       27.38       27.30       27.21       27.12       27.02       26.91    
        26.80       26.68       26.56       26.44       26.32       26.21       26.14       26.14       26.26       26.56    
   3    27.91       27.91       27.90       27.88       27.86       27.84       27.81       27.77       27.73       27.69    
        27.64       27.58       27.52       27.45       27.38       27.30       27.21       27.12       27.02       26.91    
        26.80       26.68       26.56       26.44       26.32       26.21       26.14       26.14       26.26       26.56    
   4    27.91       27.91       27.90       27.88       27.86       27.84       27.81       27.77       27.73       27.69    
        27.64       27.58       27.52       27.45       27.38       27.30       27.21       27.12       27.02       26.91    
        26.80       26.68       26.56       26.44       26.32       26.21       26.14       26.14       26.26       26.56    
   5    27.91       27.91       27.90       27.88       27.86       27.84       27.81       27.77       27.73       27.69    
        27.64       27.58       27.52       27.45       27.38       27.30       27.21       27.12       27.02       26.91    
        26.80       26.68       26.56       26.44       26.32       26.21       26.14       26.14       26.26       26.56    
   6    27.91       27.91       27.90       27.88       27.86       27.84       27.81       27.77       27.73       27.69    
        27.64       27.58       27.52       27.45       27.38       27.30       27.21       27.12       27.02       26.91    
        26.80       26.68       26.56       26.44       26.32       26.21       26.14       26.14       26.26       26.56    
   7    27.91       27.91       27.90       27.88       27.86       27.84       27.81       27.77       27.73       27.69    
        27.64       27.58       27.52       27.45       27.38       27.30       27.21       27.12       27.02       26.91    
        26.80       26.68       26.56       26.44       26.32       26.21       26.14       26.14       26.26       26.56    
   8    27.91       27.91       27.90       27.88       27.86       27.84       27.81       27.77       27.73       27.69    
        27.64       27.58       27.52       27.45       27.38       27.30       27.21       27.12       27.02       26.91    
        26.80       26.68       26.56       26.44       26.32       26.21       26.14       26.14       26.26       26.56    
   9    27.91       27.91       27.90       27.88       27.86       27.84       27.81       27.77       27.73       27.69    
        27.64       27.58       27.52       27.45       27.38       27.30       27.21       27.12       27.02       26.91    
        26.80       26.68       26.56       26.44       26.32       26.21       26.14       26.14       26.26       26.56    
  10    27.91       27.91       27.90       27.88       27.86       27.84       27.81       27.77       27.73       27.69    
        27.64       27.58       27.52       27.45       27.38       27.30       27.21       27.12       27.02       26.91    
        26.80       26.68       26.56       26.44       26.32       26.21       26.14       26.14       26.26       26.56    
  11    27.91       27.91       27.90       27.88       27.86       27.84       27.81       27.77       27.73       27.69    
        27.64       27.58       27.52       27.45       27.38       27.30       27.21       27.12       27.02       26.91    
        26.80       26.68       26.56       26.44       26.32       26.21       26.14       26.14       26.26       26.56    
  12    27.91       27.91       27.90       27.88       27.86       27.84       27.81       27.77       27.73       27.69    
        27.64       27.58       27.52       27.45       27.38       27.30       27.21       27.12       27.02       26.91    
        26.80       26.68       26.56       26.44       26.32       26.21       26.14       26.14       26.26       26.56    
  13    27.91       27.91       27.90       27.88       27.86       27.84       27.81       27.77       27.73       27.69    
        27.64       27.58       27.52       27.45       27.38       27.30       27.21       27.12       27.02       26.91    
        26.80       26.68       26.56       26.44       26.32       26.21       26.14       26.14       26.26       26.56    
  14    27.91       27.91       27.90       27.88       27.86       27.84       27.81       27.77       27.73       27.69    
        27.64       27.58       27.52       27.45       27.38       27.30       27.21       27.12       27.02       26.91    
        26.80       26.68       26.56       26.44       26.32       26.21       26.14       26.14       26.26       26.56    
  15    27.91       27.91       27.90       27.88       27.86       27.84       27.81       27.77       27.73       27.69    
        27.64       27.58       27.52       27.45       27.38       27.30       27.21       27.12       27.02       26.91    
        26.80       26.68       26.56       26.44       26.32       26.21       26.14       26.14       26.26       26.56    
  16    27.91       27.91       27.90       27.88       27.86       27.84       27.81       27.77       27.73       27.69    
        27.64       27.58       27.52       27.45       27.38       27.30       27.21       27.12       27.02       26.91    
        26.80       26.68       26.56       26.44       26.32       26.21       26.14       26.14       26.26       26.56    
  17    27.91       27.91       27.90       27.88       27.86       27.84       27.81       27.77       27.73       27.69    
        27.64       27.58       27.52       27.45       27.38       27.30       27.21       27.12       27.02       26.91    
        26.80       26.68       26.56       26.44       26.32       26.21       26.14       26.14       26.26       26.56    
  18    27.91       27.91       27.90       27.88       27.86       27.84       27.81       27.77       27.73       27.69    
        27.64       27.58       27.52       27.45       27.38       27.30       27.21       27.12       27.02       26.91    
        26.80       26.68       26.56       26.44       26.32       26.21       26.14       26.14       26.26       26.56    
  19    27.91       27.91       27.90       27.88       27.86       27.84       27.81       27.77       27.73       27.69    
        27.64       27.58       27.52       27.45       27.38       27.30       27.21       27.12       27.02       26.91    
        26.80       26.68       26.56       26.44       26.32       26.21       26.14       26.14       26.26       26.56    
  20    27.91       27.91       27.90       27.88       27.86       27.84       27.81       27.77       27.73       27.69    
        27.64       27.58       27.52       27.45       27.38       27.30       27.21       27.12       27.02       26.91    
        26.80       26.68       26.56       26.44       26.32       26.21       26.14       26.14       26.26       26.56    
  21    27.91       27.91       27.90       27.88       27.86       27.84       27.81       27.77       27.73       27.69    
        27.64       27.58       27.52       27.45       27.38       27.30       27.21       27.12       27.02       26.91    
        26.80       26.68       26.56       26.44       26.32       26.21       26.14       26.14       26.26       26.56    
  22    27.91       27.91       27.90       27.88       27.86       27.84       27.81       27.77       27.73       27.69    
        27.64       27.58       27.52       27.45       27.38       27.30       27.21       27.12       27.02       26.91    
        26.80       26.68       26.56       26.44       26.32       26.21       26.14       26.14       26.26       26.56    
  23    27.91       27.91       27.90       27.88       27.86       27.84       27.81       27.77       27.73       27.69    
        27.64       27.58       27.52       27.45       27.38       27.30       27.21       27.12       27.02       26.91    
        26.80       26.68       26.56       26.44       26.32       26.21       26.14       26.14       26.26       26.56    
  24    27.91       27.91       27.90       27.88       27.86       27.84       27.81       27.77       27.73       27.69    
        27.64       27.58       27.52       27.45       27.38       27.30       27.21       27.12       27.02       26.91    
        26.80       26.68       26.56       26.44       26.32       26.21       26.14       26.14       26.26       26.56    
  25    27.91       27.91       27.90       27.88       27.86       27.84       27.81       27.77       27.73       27.69    
        27.64       27.58       27.52       27.45       27.38       27.30       27.21       27.12       27.02       26.91    
        26.80       26.68       26.56       26.44       26.32       26.21       26.14       26.14       26.26       26.56    
  26    27.91       27.91       27.90       27.88       27.86       27.84       27.81       27.77       27.73       27.69    
        27.64       27.58       27.52       27.45       27.38       27.30       27.21       27.12       27.02       26.91    
        26.80       26.68       26.56       26.44       26.32       26.21       26.14       26.14       26.26       26.56    
  27    27.91       27.91       27.90       27.88       27.86       27.84       27.81       27.77       27.73       27.69    
        27.64       27.58       27.52       27.45       27.38       27.30       27.21       27.12       27.02       26.91    
        26.80       26.68       26.56       26.44       26.32       26.21       26.14       26.14       26.26       26.56    
  28    27.91       27.91       27.90       27.88       27.86       27.84       27.81       27.77       27.73       27.69    
        27.64       27.58       27.52       27.45       27.38       27.30       27.21       27.12       27.02       26.91    
        26.80       26.68       26.56       26.44       26.32       26.21       26.14       26.14       26.26       26.56    
  29    27.91       27.91       27.90       27.88       27.86       27.84       27.81       27.77       27.73       27.69    
        27.64       27.58       27.52       27.45       27.38       27.30       27.21       27.12       27.02       26.91    
        26.80       26.68       26.56       26.44       26.32       26.21       26.14       26.14       26.26       26.56    
  30    27.91       27.91       27.90       27.88       27.86       27.84       27.81       27.77       27.73       27.69    
        27.64       27.58       27.52       27.45       27.38       27.30       27.21       27.12       27.02       26.91    
        26.80       26.68       26.56       26.44       26.32       26.21       26.14       26.14       26.26       26.56    

 HEAD WILL BE SAVED ON UNIT 1017 AT END OF TIME STEP    1, STRESS PERIOD   18



         TIME SUMMARY AT END OF TIME STEP    1 IN STRESS PERIOD   18
                    SECONDS     MINUTES      HOURS       DAYS        YEARS
                    -----------------------------------------------------------
   TIME STEP LENGTH 2.59200E+05  4320.0      72.000      3.0000     8.21355E-03
 STRESS PERIOD TIME 2.59200E+05  4320.0      72.000      3.0000     8.21355E-03
         TOTAL TIME 4.18176E+07 6.96960E+05  11616.      484.00      1.3251    
 UBDSV1 SAVING           STO-SS ON UNIT   1016 AT TIME STEP      2, STRESS PERIOD     18
 UBDSV1 SAVING           STO-SY ON UNIT   1016 AT TIME STEP      2, STRESS PERIOD     18
 UBDSV1 SAVING     FLOW-JA-FACE ON UNIT   1016 AT TIME STEP      2, STRESS PERIOD     18
 UBDSV06 SAVING              RCH IN MODEL TEST_TRANS       PACKAGE TEST_TRANS      CONNECTED TO MODEL TEST_TRANS       PACKAGE RCHA             ON UNIT   1016 AT TIME STEP      2, STRESS PERIOD     18
 UBDSV06 SAVING              CHD IN MODEL TEST_TRANS       PACKAGE TEST_TRANS      CONNECTED TO MODEL TEST_TRANS       PACKAGE CHD              ON UNIT   1016 AT TIME STEP      2, STRESS PERIOD     18

 HEAD WILL BE SAVED ON UNIT 1017 AT END OF TIME STEP    2, STRESS PERIOD   18
 UBDSV1 SAVING           STO-SS ON UNIT   1016 AT TIME STEP      3, STRESS PERIOD     18
 UBDSV1 SAVING           STO-SY ON UNIT   1016 AT TIME STEP      3, STRESS PERIOD     18
 UBDSV1 SAVING     FLOW-JA-FACE ON UNIT   1016 AT TIME STEP      3, STRESS PERIOD     18
 UBDSV06 SAVING              RCH IN MODEL TEST_TRANS       PACKAGE TEST_TRANS      CONNECTED TO MODEL TEST_TRANS       PACKAGE RCHA             ON UNIT   1016 AT TIME STEP      3, STRESS PERIOD     18
 UBDSV06 SAVING              CHD IN MODEL TEST_TRANS       PACKAGE TEST_TRANS      CONNECTED TO MODEL TEST_TRANS       PACKAGE CHD              ON UNIT   1016 AT TIME STEP      3, STRESS PERIOD     18

 HEAD WILL BE SAVED ON UNIT 1017 AT END OF TIME STEP    3, STRESS PERIOD   18
 UBDSV1 SAVING           STO-SS ON UNIT   1016 AT TIME STEP      4, STRESS PERIOD     18
 UBDSV1 SAVING           STO-SY ON UNIT   1016 AT TIME STEP      4, STRESS PERIOD     18
 UBDSV1 SAVING     FLOW-JA-FACE ON UNIT   1016 AT TIME STEP      4, STRESS PERIOD     18
 UBDSV06 SAVING              RCH IN MODEL TEST_TRANS       PACKAGE TEST_TRANS      CONNECTED TO MODEL TEST_TRANS       PACKAGE RCHA             ON UNIT   1016 AT TIME STEP      4, STRESS PERIOD     18
 UBDSV06 SAVING              CHD IN MODEL TEST_TRANS       PACKAGE TEST_TRANS      CONNECTED TO MODEL TEST_TRANS       PACKAGE CHD              ON UNIT   1016 AT TIME STEP      4, STRESS PERIOD     18

 HEAD WILL BE SAVED ON UNIT 1017 AT END OF TIME STEP    4, STRESS PERIOD   18
 UBDSV1 SAVING           STO-SS ON UNIT   1016 AT TIME STEP      5, STRESS PERIOD     18
 UBDSV1 SAVING           STO-SY ON UNIT   1016 AT TIME STEP      5, STRESS PERIOD     18
 UBDSV1 SAVING     FLOW-JA-FACE ON UNIT   1016 AT TIME STEP      5, STRESS PERIOD     18
 UBDSV06 SAVING              RCH IN MODEL TEST_TRANS       PACKAGE TEST_TRANS      CONNECTED TO MODEL TEST_TRANS       PACKAGE RCHA             ON UNIT   1016 AT TIME STEP      5, STRESS PERIOD     18
 UBDSV06 SAVING              CHD IN MODEL TEST_TRANS       PACKAGE TEST_TRANS      CONNECTED TO MODEL TEST_TRANS       PACKAGE CHD              ON UNIT   1016 AT TIME STEP      5, STRESS PERIOD     18

 HEAD WILL BE SAVED ON UNIT 1017 AT END OF TIME STEP    5, STRESS PERIOD   18
 UBDSV1 SAVING           STO-SS ON UNIT   1016 AT TIME STEP      6, STRESS PERIOD     18
 UBDSV1 SAVING           STO-SY ON UNIT   1016 AT TIME STEP      6, STRESS PERIOD     18
 UBDSV1 SAVING     FLOW-JA-FACE ON UNIT   1016 AT TIME STEP      6, STRESS PERIOD     18
 UBDSV06 SAVING              RCH IN MODEL TEST_TRANS       PACKAGE TEST_TRANS      CONNECTED TO MODEL TEST_TRANS       PACKAGE RCHA             ON UNIT   1016 AT TIME STEP      6, STRESS PERIOD     18
 UBDSV06 SAVING              CHD IN MODEL TEST_TRANS       PACKAGE TEST_TRANS      CONNECTED TO MODEL TEST_TRANS       PACKAGE CHD              ON UNIT   1016 AT TIME STEP      6, STRESS PERIOD     18

 HEAD WILL BE SAVED ON UNIT 1017 AT END OF TIME STEP    6, STRESS PERIOD   18
 UBDSV1 SAVING           STO-SS ON UNIT   1016 AT TIME STEP      7, STRESS PERIOD     18
 UBDSV1 SAVING           STO-SY ON UNIT   1016 AT TIME STEP      7, STRESS PERIOD     18
 UBDSV1 SAVING     FLOW-JA-FACE ON UNIT   1016 AT TIME STEP      7, STRESS PERIOD     18
 UBDSV06 SAVING              RCH IN MODEL TEST_TRANS       PACKAGE TEST_TRANS      CONNECTED TO MODEL TEST_TRANS       PACKAGE RCHA             ON UNIT   1016 AT TIME STEP      7, STRESS PERIOD     18
 UBDSV06 SAVING              CHD IN MODEL TEST_TRANS       PACKAGE TEST_TRANS      CONNECTED TO MODEL TEST_TRANS       PACKAGE CHD              ON UNIT   1016 AT TIME STEP      7, STRESS PERIOD     18

 HEAD WILL BE SAVED ON UNIT 1017 AT END OF TIME STEP    7, STRESS PERIOD   18
 UBDSV1 SAVING           STO-SS ON UNIT   1016 AT TIME STEP      8, STRESS PERIOD     18
 UBDSV1 SAVING           STO-SY ON UNIT   1016 AT TIME STEP      8, STRESS PERIOD     18
 UBDSV1 SAVING     FLOW-JA-FACE ON UNIT   1016 AT TIME STEP      8, STRESS PERIOD     18
 UBDSV06 SAVING              RCH IN MODEL TEST_TRANS       PACKAGE TEST_TRANS      CONNECTED TO MODEL TEST_TRANS       PACKAGE RCHA             ON UNIT   1016 AT TIME STEP      8, STRESS PERIOD     18
 UBDSV06 SAVING              CHD IN MODEL TEST_TRANS       PACKAGE TEST_TRANS      CONNECTED TO MODEL TEST_TRANS       PACKAGE CHD              ON UNIT   1016 AT TIME STEP      8, STRESS PERIOD     18

 HEAD WILL BE SAVED ON UNIT 1017 AT END OF TIME STEP    8, STRESS PERIOD   18
 UBDSV1 SAVING           STO-SS ON UNIT   1016 AT TIME STEP      9, STRESS PERIOD     18
 UBDSV1 SAVING           STO-SY ON UNIT   1016 AT TIME STEP      9, STRESS PERIOD     18
 UBDSV1 SAVING     FLOW-JA-FACE ON UNIT   1016 AT TIME STEP      9, STRESS PERIOD     18
 UBDSV06 SAVING              RCH IN MODEL TEST_TRANS       PACKAGE TEST_TRANS      CONNECTED TO MODEL TEST_TRANS       PACKAGE RCHA             ON UNIT   1016 AT TIME STEP      9, STRESS PERIOD     18
 UBDSV06 SAVING              CHD IN MODEL TEST_TRANS       PACKAGE TEST_TRANS      CONNECTED TO MODEL TEST_TRANS       PACKAGE CHD              ON UNIT   1016 AT TIME STEP      9, STRESS PERIOD     18

 HEAD WILL BE SAVED ON UNIT 1017 AT END OF TIME STEP    9, STRESS PERIOD   18
 UBDSV1 SAVING           STO-SS ON UNIT   1016 AT TIME STEP     10, STRESS PERIOD     18
 UBDSV1 SAVING           STO-SY ON UNIT   1016 AT TIME STEP     10, STRESS PERIOD     18
 UBDSV1 SAVING     FLOW-JA-FACE ON UNIT   1016 AT TIME STEP     10, STRESS PERIOD     18
 UBDSV06 SAVING              RCH IN MODEL TEST_TRANS       PACKAGE TEST_TRANS      CONNECTED TO MODEL TEST_TRANS       PACKAGE RCHA             ON UNIT   1016 AT TIME STEP     10, STRESS PERIOD     18
 UBDSV06 SAVING              CHD IN MODEL TEST_TRANS       PACKAGE TEST_TRANS      CONNECTED TO MODEL TEST_TRANS       PACKAGE CHD              ON UNIT   1016 AT TIME STEP     10, STRESS PERIOD     18
1
  HEAD IN LAYER   1 AT END OF TIME STEP  10 IN STRESS PERIOD   18
  ---------------------------------------------------------------------------

            1           2           3           4           5           6           7           8           9          10
           11          12          13          14          15          16          17          18          19          20
           21          22          23          24          25          26          27          28          29          30
 ........................................................................................................................
   1    27.77       27.76       27.76       27.74       27.73       27.71       27.68       27.65       27.62       27.59    
        27.55       27.51       27.46       27.42       27.37       27.32       27.26       27.21       27.15       27.10    
        27.04       26.99       26.93       26.88       26.83       26.78       26.72       26.67       26.61       26.56    
   2    27.77       27.76       27.76       27.74       27.73       27.71       27.68       27.65       27.62       27.59    
        27.55       27.51       27.46       27.42       27.37       27.32       27.26       27.21       27.15       27.10    
        27.04       26.99       26.93       26.88       26.83       26.78       26.72       26.67       26.61       26.56    
   3    27.77       27.76       27.76       27.74       27.73       27.71       27.68       27.65       27.62       27.59    
        27.55       27.51       27.46       27.42       27.37       27.32       27.26       27.21       27.15       27.10    
        27.04       26.99       26.93       26.88       26.83       26.78       26.72       26.67       26.61       26.56    
   4    27.77       27.76       27.76       27.74       27.73       27.71       27.68       27.65       27.62       27.59    
        27.55       27.51       27.46       27.42       27.37       27.32       27.26       27.21       27.15       27.10    
        27.04       26.99       26.93       26.88       26.83       26.78       26.72       26.67       26.61       26.56    
   5    27.77       27.76       27.76       27.74       27.73       27.71       27.68       27.65       27.62       27.59    
        27.55       27.51       27.46       27.42       27.37       27.32       27.26       27.21       27.15       27.10    
        27.04       26.99       26.93       26.88       26.83       26.78       26.72       26.67       26.61       26.56    
   6    27.77       27.76       27.76       27.74       27.73       27.71       27.68       27.65       27.62       27.59    
        27.55       27.51       27.46       27.42       27.37       27.32       27.26       27.21       27.15       27.10    
        27.04       26.99       26.93       26.88       26.83       26.78       26.72       26.67       26.61       26.56    
   7    27.77       27.76       27.76       27.74       27.73       27.71       27.68       27.65       27.62       27.59    
        27.55       27.51       27.46       27.42       27.37       27.32       27.26       27.21       27.15       27.10    
        27.04       26.99       26.93       26.88       26.83       26.78       26.72       26.67       26.61       26.56    
   8    27.77       27.76       27.76       27.74       27.73       27.71       27.68       27.65       27.62       27.59    
        27.55       27.51       27.46       27.42       27.37       27.32       27.26       27.21       27.15       27.10    
        27.04       26.99       26.93       26.88       26.83       26.78       26.72       26.67       26.61       26.56    
   9    27.77       27.76       27.76       27.74       27.73       27.71       27.68       27.65       27.62       27.59    
        27.55       27.51       27.46       27.42       27.37       27.32       27.26       27.21       27.15       27.10    
        27.04       26.99       26.93       26.88       26.83       26.78       26.72       26.67       26.61       26.56    
  10    27.77       27.76       27.76       27.74       27.73       27.71       27.68       27.65       27.62       27.59    
        27.55       27.51       27.46       27.42       27.37       27.32       27.26       27.21       27.15       27.10    
        27.04       26.99       26.93       26.88       26.83       26.78       26.72       26.67       26.61       26.56    
  11    27.77       27.76       27.76       27.74       27.73       27.71       27.68       27.65       27.62       27.59    
        27.55       27.51       27.46       27.42       27.37       27.32       27.26       27.21       27.15       27.10    
        27.04       26.99       26.93       26.88       26.83       26.78       26.72       26.67       26.61       26.56    
  12    27.77       27.76       27.76       27.74       27.73       27.71       27.68       27.65       27.62       27.59    
        27.55       27.51       27.46       27.42       27.37       27.32       27.26       27.21       27.15       27.10    
        27.04       26.99       26.93       26.88       26.83       26.78       26.72       26.67       26.61       26.56    
  13    27.77       27.76       27.76       27.74       27.73       27.71       27.68       27.65       27.62       27.59    
        27.55       27.51       27.46       27.42       27.37       27.32       27.26       27.21       27.15       27.10    
        27.04       26.99       26.93       26.88       26.83       26.78       26.72       26.67       26.61       26.56    
  14    27.77       27.76       27.76       27.74       27.73       27.71       27.68       27.65       27.62       27.59    
        27.55       27.51       27.46       27.42       27.37       27.32       27.26       27.21       27.15       27.10    
        27.04       26.99       26.93       26.88       26.83       26.78       26.72       26.67       26.61       26.56    
  15    27.77       27.76       27.76       27.74       27.73       27.71       27.68       27.65       27.62       27.59    
        27.55       27.51       27.46       27.42       27.37       27.32       27.26       27.21       27.15       27.10    
        27.04       26.99       26.93       26.88       26.83       26.78       26.72       26.67       26.61       26.56    
  16    27.77       27.76       27.76       27.74       27.73       27.71       27.68       27.65       27.62       27.59    
        27.55       27.51       27.46       27.42       27.37       27.32       27.26       27.21       27.15       27.10    
        27.04       26.99       26.93       26.88       26.83       26.78       26.72       26.67       26.61       26.56    
  17    27.77       27.76       27.76       27.74       27.73       27.71       27.68       27.65       27.62       27.59    
        27.55       27.51       27.46       27.42       27.37       27.32       27.26       27.21       27.15       27.10    
        27.04       26.99       26.93       26.88       26.83       26.78       26.72       26.67       26.61       26.56    
  18    27.77       27.76       27.76       27.74       27.73       27.71       27.68       27.65       27.62       27.59    
        27.55       27.51       27.46       27.42       27.37       27.32       27.26       27.21       27.15       27.10    
        27.04       26.99       26.93       26.88       26.83       26.78       26.72       26.67       26.61       26.56    
  19    27.77       27.76       27.76       27.74       27.73       27.71       27.68       27.65       27.62       27.59    
        27.55       27.51       27.46       27.42       27.37       27.32       27.26       27.21       27.15       27.10    
        27.04       26.99       26.93       26.88       26.83       26.78       26.72       26.67       26.61       26.56    
  20    27.77       27.76       27.76       27.74       27.73       27.71       27.68       27.65       27.62       27.59    
        27.55       27.51       27.46       27.42       27.37       27.32       27.26       27.21       27.15       27.10    
        27.04       26.99       26.93       26.88       26.83       26.78       26.72       26.67       26.61       26.56    
  21    27.77       27.76       27.76       27.74       27.73       27.71       27.68       27.65       27.62       27.59    
        27.55       27.51       27.46       27.42       27.37       27.32       27.26       27.21       27.15       27.10    
        27.04       26.99       26.93       26.88       26.83       26.78       26.72       26.67       26.61       26.56    
  22    27.77       27.76       27.76       27.74       27.73       27.71       27.68       27.65       27.62       27.59    
        27.55       27.51       27.46       27.42       27.37       27.32       27.26       27.21       27.15       27.10    
        27.04       26.99       26.93       26.88       26.83       26.78       26.72       26.67       26.61       26.56    
  23    27.77       27.76       27.76       27.74       27.73       27.71       27.68       27.65       27.62       27.59    
        27.55       27.51       27.46       27.42       27.37       27.32       27.26       27.21       27.15       27.10    
        27.04       26.99       26.93       26.88       26.83       26.78       26.72       26.67       26.61       26.56    
  24    27.77       27.76       27.76       27.74       27.73       27.71       27.68       27.65       27.62       27.59    
        27.55       27.51       27.46       27.42       27.37       27.32       27.26       27.21       27.15       27.10    
        27.04       26.99       26.93       26.88       26.83       26.78       26.72       26.67       26.61       26.56    
  25    27.77       27.76       27.76       27.74       27.73       27.71       27.68       27.65       27.62       27.59    
        27.55       27.51       27.46       27.42       27.37       27.32       27.26       27.21       27.15       27.10    
        27.04       26.99       26.93       26.88       26.83       26.78       26.72       26.67       26.61       26.56    
  26    27.77       27.76       27.76       27.74       27.73       27.71       27.68       27.65       27.62       27.59    
        27.55       27.51       27.46       27.42       27.37       27.32       27.26       27.21       27.15       27.10    
        27.04       26.99       26.93       26.88       26.83       26.78       26.72       26.67       26.61       26.56    
  27    27.77       27.76       27.76       27.74       27.73       27.71       27.68       27.65       27.62       27.59    
        27.55       27.51       27.46       27.42       27.37       27.32       27.26       27.21       27.15       27.10    
        27.04       26.99       26.93       26.88       26.83       26.78       26.72       26.67       26.61       26.56    
  28    27.77       27.76       27.76       27.74       27.73       27.71       27.68       27.65       27.62       27.59    
        27.55       27.51       27.46       27.42       27.37       27.32       27.26       27.21       27.15       27.10    
        27.04       26.99       26.93       26.88       26.83       26.78       26.72       26.67       26.61       26.56    
  29    27.77       27.76       27.76       27.74       27.73       27.71       27.68       27.65       27.62       27.59    
        27.55       27.51       27.46       27.42       27.37       27.32       27.26       27.21       27.15       27.10    
        27.04       26.99       26.93       26.88       26.83       26.78       26.72       26.67       26.61       26.56    
  30    27.77       27.76       27.76       27.74       27.73       27.71       27.68       27.65       27.62       27.59    
        27.55       27.51       27.46       27.42       27.37       27.32       27.26       27.21       27.15       27.10    
        27.04       26.99       26.93       26.88       26.83       26.78       26.72       26.67       26.61       26.56    

 HEAD WILL BE SAVED ON UNIT 1017 AT END OF TIME STEP   10, STRESS PERIOD   18


  VOLUME BUDGET FOR ENTIRE MODEL AT END OF TIME STEP   10, STRESS PERIOD  18
  ---------------------------------------------------------------------------------------------------

     CUMULATIVE VOLUME      L**3       RATES FOR THIS TIME STEP      L**3/T          PACKAGE NAME    
     ------------------                 ------------------------                     ----------------

           IN:                                      IN:
           ---                                      ---
              STO-SS =          29.5264                STO-SS =       3.5716E-02     STORAGE         
              STO-SY =       18783.2120                STO-SY =          22.0347     STORAGE         
                 RCH =       84616.4745                   RCH =          71.5068     RCHA            
                 CHD =        2273.1987                   CHD =           0.0000     CHD             

            TOTAL IN =      105702.4115              TOTAL IN =          93.5772

          OUT:                                     OUT:
          ----                                     ----
              STO-SS =          25.5265                STO-SS =       6.2238E-02     STORAGE         
              STO-SY =       16736.1023                STO-SY =          40.2280     STORAGE         
                 RCH =           0.0000                   RCH =           0.0000     RCHA            
                 CHD =       88940.3940                   CHD =          53.2906     CHD             

           TOTAL OUT =      105702.0228             TOTAL OUT =          93.5808

            IN - OUT =           0.3888              IN - OUT =      -3.6130E-03

 PERCENT DISCREPANCY =           0.00     PERCENT DISCREPANCY =          -0.00




         TIME SUMMARY AT END OF TIME STEP   10 IN STRESS PERIOD   18
                    SECONDS     MINUTES      HOURS       DAYS        YEARS
                    -----------------------------------------------------------
   TIME STEP LENGTH 2.59200E+05  4320.0      72.000      3.0000     8.21355E-03
 STRESS PERIOD TIME 2.59200E+06  43200.      720.00      30.000     8.21355E-02
         TOTAL TIME 4.41504E+07 7.35840E+05  12264.      511.00      1.3990    

 OUTPUT CONTROL FOR STRESS PERIOD 19 IS REPEATED USING SETTINGS FROM A PREVIOUS STRESS PERIOD.


 STRESS PERIOD 19 IS TRANSIENT


                 RECHARGE =  0.5479452E-03
 UBDSV1 SAVING           STO-SS ON UNIT   1016 AT TIME STEP      1, STRESS PERIOD     19
 UBDSV1 SAVING           STO-SY ON UNIT   1016 AT TIME STEP      1, STRESS PERIOD     19
 UBDSV1 SAVING     FLOW-JA-FACE ON UNIT   1016 AT TIME STEP      1, STRESS PERIOD     19
 UBDSV06 SAVING              RCH IN MODEL TEST_TRANS       PACKAGE TEST_TRANS      CONNECTED TO MODEL TEST_TRANS       PACKAGE RCHA             ON UNIT   1016 AT TIME STEP      1, STRESS PERIOD     19
 UBDSV06 SAVING              CHD IN MODEL TEST_TRANS       PACKAGE TEST_TRANS      CONNECTED TO MODEL TEST_TRANS       PACKAGE CHD              ON UNIT   1016 AT TIME STEP      1, STRESS PERIOD     19
1
  HEAD IN LAYER   1 AT END OF TIME STEP   1 IN STRESS PERIOD   19
  ---------------------------------------------------------------------------

            1           2           3           4           5           6           7           8           9          10
           11          12          13          14          15          16          17          18          19          20
           21          22          23          24          25          26          27          28          29          30
 ........................................................................................................................
   1    27.75       27.75       27.74       27.73       27.71       27.69       27.67       27.64       27.61       27.58    
        27.54       27.50       27.46       27.41       27.37       27.32       27.27       27.21       27.16       27.10    
        27.04       26.98       26.91       26.84       26.75       26.65       26.51       26.31       26.01       25.49    
   2    27.75       27.75       27.74       27.73       27.71       27.69       27.67       27.64       27.61       27.58    
        27.54       27.50       27.46       27.41       27.37       27.32       27.27       27.21       27.16       27.10    
        27.04       26.98       26.91       26.84       26.75       26.65       26.51       26.31       26.01       25.49    
   3    27.75       27.75       27.74       27.73       27.71       27.69       27.67       27.64       27.61       27.58    
        27.54       27.50       27.46       27.41       27.37       27.32       27.27       27.21       27.16       27.10    
        27.04       26.98       26.91       26.84       26.75       26.65       26.51       26.31       26.01       25.49    
   4    27.75       27.75       27.74       27.73       27.71       27.69       27.67       27.64       27.61       27.58    
        27.54       27.50       27.46       27.41       27.37       27.32       27.27       27.21       27.16       27.10    
        27.04       26.98       26.91       26.84       26.75       26.65       26.51       26.31       26.01       25.49    
   5    27.75       27.75       27.74       27.73       27.71       27.69       27.67       27.64       27.61       27.58    
        27.54       27.50       27.46       27.41       27.37       27.32       27.27       27.21       27.16       27.10    
        27.04       26.98       26.91       26.84       26.75       26.65       26.51       26.31       26.01       25.49    
   6    27.75       27.75       27.74       27.73       27.71       27.69       27.67       27.64       27.61       27.58    
        27.54       27.50       27.46       27.41       27.37       27.32       27.27       27.21       27.16       27.10    
        27.04       26.98       26.91       26.84       26.75       26.65       26.51       26.31       26.01       25.49    
   7    27.75       27.75       27.74       27.73       27.71       27.69       27.67       27.64       27.61       27.58    
        27.54       27.50       27.46       27.41       27.37       27.32       27.27       27.21       27.16       27.10    
        27.04       26.98       26.91       26.84       26.75       26.65       26.51       26.31       26.01       25.49    
   8    27.75       27.75       27.74       27.73       27.71       27.69       27.67       27.64       27.61       27.58    
        27.54       27.50       27.46       27.41       27.37       27.32       27.27       27.21       27.16       27.10    
        27.04       26.98       26.91       26.84       26.75       26.65       26.51       26.31       26.01       25.49    
   9    27.75       27.75       27.74       27.73       27.71       27.69       27.67       27.64       27.61       27.58    
        27.54       27.50       27.46       27.41       27.37       27.32       27.27       27.21       27.16       27.10    
        27.04       26.98       26.91       26.84       26.75       26.65       26.51       26.31       26.01       25.49    
  10    27.75       27.75       27.74       27.73       27.71       27.69       27.67       27.64       27.61       27.58    
        27.54       27.50       27.46       27.41       27.37       27.32       27.27       27.21       27.16       27.10    
        27.04       26.98       26.91       26.84       26.75       26.65       26.51       26.31       26.01       25.49    
  11    27.75       27.75       27.74       27.73       27.71       27.69       27.67       27.64       27.61       27.58    
        27.54       27.50       27.46       27.41       27.37       27.32       27.27       27.21       27.16       27.10    
        27.04       26.98       26.91       26.84       26.75       26.65       26.51       26.31       26.01       25.49    
  12    27.75       27.75       27.74       27.73       27.71       27.69       27.67       27.64       27.61       27.58    
        27.54       27.50       27.46       27.41       27.37       27.32       27.27       27.21       27.16       27.10    
        27.04       26.98       26.91       26.84       26.75       26.65       26.51       26.31       26.01       25.49    
  13    27.75       27.75       27.74       27.73       27.71       27.69       27.67       27.64       27.61       27.58    
        27.54       27.50       27.46       27.41       27.37       27.32       27.27       27.21       27.16       27.10    
        27.04       26.98       26.91       26.84       26.75       26.65       26.51       26.31       26.01       25.49    
  14    27.75       27.75       27.74       27.73       27.71       27.69       27.67       27.64       27.61       27.58    
        27.54       27.50       27.46       27.41       27.37       27.32       27.27       27.21       27.16       27.10    
        27.04       26.98       26.91       26.84       26.75       26.65       26.51       26.31       26.01       25.49    
  15    27.75       27.75       27.74       27.73       27.71       27.69       27.67       27.64       27.61       27.58    
        27.54       27.50       27.46       27.41       27.37       27.32       27.27       27.21       27.16       27.10    
        27.04       26.98       26.91       26.84       26.75       26.65       26.51       26.31       26.01       25.49    
  16    27.75       27.75       27.74       27.73       27.71       27.69       27.67       27.64       27.61       27.58    
        27.54       27.50       27.46       27.41       27.37       27.32       27.27       27.21       27.16       27.10    
        27.04       26.98       26.91       26.84       26.75       26.65       26.51       26.31       26.01       25.49    
  17    27.75       27.75       27.74       27.73       27.71       27.69       27.67       27.64       27.61       27.58    
        27.54       27.50       27.46       27.41       27.37       27.32       27.27       27.21       27.16       27.10    
        27.04       26.98       26.91       26.84       26.75       26.65       26.51       26.31       26.01       25.49    
  18    27.75       27.75       27.74       27.73       27.71       27.69       27.67       27.64       27.61       27.58    
        27.54       27.50       27.46       27.41       27.37       27.32       27.27       27.21       27.16       27.10    
        27.04       26.98       26.91       26.84       26.75       26.65       26.51       26.31       26.01       25.49    
  19    27.75       27.75       27.74       27.73       27.71       27.69       27.67       27.64       27.61       27.58    
        27.54       27.50       27.46       27.41       27.37       27.32       27.27       27.21       27.16       27.10    
        27.04       26.98       26.91       26.84       26.75       26.65       26.51       26.31       26.01       25.49    
  20    27.75       27.75       27.74       27.73       27.71       27.69       27.67       27.64       27.61       27.58    
        27.54       27.50       27.46       27.41       27.37       27.32       27.27       27.21       27.16       27.10    
        27.04       26.98       26.91       26.84       26.75       26.65       26.51       26.31       26.01       25.49    
  21    27.75       27.75       27.74       27.73       27.71       27.69       27.67       27.64       27.61       27.58    
        27.54       27.50       27.46       27.41       27.37       27.32       27.27       27.21       27.16       27.10    
        27.04       26.98       26.91       26.84       26.75       26.65       26.51       26.31       26.01       25.49    
  22    27.75       27.75       27.74       27.73       27.71       27.69       27.67       27.64       27.61       27.58    
        27.54       27.50       27.46       27.41       27.37       27.32       27.27       27.21       27.16       27.10    
        27.04       26.98       26.91       26.84       26.75       26.65       26.51       26.31       26.01       25.49    
  23    27.75       27.75       27.74       27.73       27.71       27.69       27.67       27.64       27.61       27.58    
        27.54       27.50       27.46       27.41       27.37       27.32       27.27       27.21       27.16       27.10    
        27.04       26.98       26.91       26.84       26.75       26.65       26.51       26.31       26.01       25.49    
  24    27.75       27.75       27.74       27.73       27.71       27.69       27.67       27.64       27.61       27.58    
        27.54       27.50       27.46       27.41       27.37       27.32       27.27       27.21       27.16       27.10    
        27.04       26.98       26.91       26.84       26.75       26.65       26.51       26.31       26.01       25.49    
  25    27.75       27.75       27.74       27.73       27.71       27.69       27.67       27.64       27.61       27.58    
        27.54       27.50       27.46       27.41       27.37       27.32       27.27       27.21       27.16       27.10    
        27.04       26.98       26.91       26.84       26.75       26.65       26.51       26.31       26.01       25.49    
  26    27.75       27.75       27.74       27.73       27.71       27.69       27.67       27.64       27.61       27.58    
        27.54       27.50       27.46       27.41       27.37       27.32       27.27       27.21       27.16       27.10    
        27.04       26.98       26.91       26.84       26.75       26.65       26.51       26.31       26.01       25.49    
  27    27.75       27.75       27.74       27.73       27.71       27.69       27.67       27.64       27.61       27.58    
        27.54       27.50       27.46       27.41       27.37       27.32       27.27       27.21       27.16       27.10    
        27.04       26.98       26.91       26.84       26.75       26.65       26.51       26.31       26.01       25.49    
  28    27.75       27.75       27.74       27.73       27.71       27.69       27.67       27.64       27.61       27.58    
        27.54       27.50       27.46       27.41       27.37       27.32       27.27       27.21       27.16       27.10    
        27.04       26.98       26.91       26.84       26.75       26.65       26.51       26.31       26.01       25.49    
  29    27.75       27.75       27.74       27.73       27.71       27.69       27.67       27.64       27.61       27.58    
        27.54       27.50       27.46       27.41       27.37       27.32       27.27       27.21       27.16       27.10    
        27.04       26.98       26.91       26.84       26.75       26.65       26.51       26.31       26.01       25.49    
  30    27.75       27.75       27.74       27.73       27.71       27.69       27.67       27.64       27.61       27.58    
        27.54       27.50       27.46       27.41       27.37       27.32       27.27       27.21       27.16       27.10    
        27.04       26.98       26.91       26.84       26.75       26.65       26.51       26.31       26.01       25.49    

 HEAD WILL BE SAVED ON UNIT 1017 AT END OF TIME STEP    1, STRESS PERIOD   19



         TIME SUMMARY AT END OF TIME STEP    1 IN STRESS PERIOD   19
                    SECONDS     MINUTES      HOURS       DAYS        YEARS
                    -----------------------------------------------------------
   TIME STEP LENGTH 2.59200E+05  4320.0      72.000      3.0000     8.21355E-03
 STRESS PERIOD TIME 2.59200E+05  4320.0      72.000      3.0000     8.21355E-03
         TOTAL TIME 4.44096E+07 7.40160E+05  12336.      514.00      1.4073    
 UBDSV1 SAVING           STO-SS ON UNIT   1016 AT TIME STEP      2, STRESS PERIOD     19
 UBDSV1 SAVING           STO-SY ON UNIT   1016 AT TIME STEP      2, STRESS PERIOD     19
 UBDSV1 SAVING     FLOW-JA-FACE ON UNIT   1016 AT TIME STEP      2, STRESS PERIOD     19
 UBDSV06 SAVING              RCH IN MODEL TEST_TRANS       PACKAGE TEST_TRANS      CONNECTED TO MODEL TEST_TRANS       PACKAGE RCHA             ON UNIT   1016 AT TIME STEP      2, STRESS PERIOD     19
 UBDSV06 SAVING              CHD IN MODEL TEST_TRANS       PACKAGE TEST_TRANS      CONNECTED TO MODEL TEST_TRANS       PACKAGE CHD              ON UNIT   1016 AT TIME STEP      2, STRESS PERIOD     19

 HEAD WILL BE SAVED ON UNIT 1017 AT END OF TIME STEP    2, STRESS PERIOD   19
 UBDSV1 SAVING           STO-SS ON UNIT   1016 AT TIME STEP      3, STRESS PERIOD     19
 UBDSV1 SAVING           STO-SY ON UNIT   1016 AT TIME STEP      3, STRESS PERIOD     19
 UBDSV1 SAVING     FLOW-JA-FACE ON UNIT   1016 AT TIME STEP      3, STRESS PERIOD     19
 UBDSV06 SAVING              RCH IN MODEL TEST_TRANS       PACKAGE TEST_TRANS      CONNECTED TO MODEL TEST_TRANS       PACKAGE RCHA             ON UNIT   1016 AT TIME STEP      3, STRESS PERIOD     19
 UBDSV06 SAVING              CHD IN MODEL TEST_TRANS       PACKAGE TEST_TRANS      CONNECTED TO MODEL TEST_TRANS       PACKAGE CHD              ON UNIT   1016 AT TIME STEP      3, STRESS PERIOD     19

 HEAD WILL BE SAVED ON UNIT 1017 AT END OF TIME STEP    3, STRESS PERIOD   19
 UBDSV1 SAVING           STO-SS ON UNIT   1016 AT TIME STEP      4, STRESS PERIOD     19
 UBDSV1 SAVING           STO-SY ON UNIT   1016 AT TIME STEP      4, STRESS PERIOD     19
 UBDSV1 SAVING     FLOW-JA-FACE ON UNIT   1016 AT TIME STEP      4, STRESS PERIOD     19
 UBDSV06 SAVING              RCH IN MODEL TEST_TRANS       PACKAGE TEST_TRANS      CONNECTED TO MODEL TEST_TRANS       PACKAGE RCHA             ON UNIT   1016 AT TIME STEP      4, STRESS PERIOD     19
 UBDSV06 SAVING              CHD IN MODEL TEST_TRANS       PACKAGE TEST_TRANS      CONNECTED TO MODEL TEST_TRANS       PACKAGE CHD              ON UNIT   1016 AT TIME STEP      4, STRESS PERIOD     19

 HEAD WILL BE SAVED ON UNIT 1017 AT END OF TIME STEP    4, STRESS PERIOD   19
 UBDSV1 SAVING           STO-SS ON UNIT   1016 AT TIME STEP      5, STRESS PERIOD     19
 UBDSV1 SAVING           STO-SY ON UNIT   1016 AT TIME STEP      5, STRESS PERIOD     19
 UBDSV1 SAVING     FLOW-JA-FACE ON UNIT   1016 AT TIME STEP      5, STRESS PERIOD     19
 UBDSV06 SAVING              RCH IN MODEL TEST_TRANS       PACKAGE TEST_TRANS      CONNECTED TO MODEL TEST_TRANS       PACKAGE RCHA             ON UNIT   1016 AT TIME STEP      5, STRESS PERIOD     19
 UBDSV06 SAVING              CHD IN MODEL TEST_TRANS       PACKAGE TEST_TRANS      CONNECTED TO MODEL TEST_TRANS       PACKAGE CHD              ON UNIT   1016 AT TIME STEP      5, STRESS PERIOD     19

 HEAD WILL BE SAVED ON UNIT 1017 AT END OF TIME STEP    5, STRESS PERIOD   19
 UBDSV1 SAVING           STO-SS ON UNIT   1016 AT TIME STEP      6, STRESS PERIOD     19
 UBDSV1 SAVING           STO-SY ON UNIT   1016 AT TIME STEP      6, STRESS PERIOD     19
 UBDSV1 SAVING     FLOW-JA-FACE ON UNIT   1016 AT TIME STEP      6, STRESS PERIOD     19
 UBDSV06 SAVING              RCH IN MODEL TEST_TRANS       PACKAGE TEST_TRANS      CONNECTED TO MODEL TEST_TRANS       PACKAGE RCHA             ON UNIT   1016 AT TIME STEP      6, STRESS PERIOD     19
 UBDSV06 SAVING              CHD IN MODEL TEST_TRANS       PACKAGE TEST_TRANS      CONNECTED TO MODEL TEST_TRANS       PACKAGE CHD              ON UNIT   1016 AT TIME STEP      6, STRESS PERIOD     19

 HEAD WILL BE SAVED ON UNIT 1017 AT END OF TIME STEP    6, STRESS PERIOD   19
 UBDSV1 SAVING           STO-SS ON UNIT   1016 AT TIME STEP      7, STRESS PERIOD     19
 UBDSV1 SAVING           STO-SY ON UNIT   1016 AT TIME STEP      7, STRESS PERIOD     19
 UBDSV1 SAVING     FLOW-JA-FACE ON UNIT   1016 AT TIME STEP      7, STRESS PERIOD     19
 UBDSV06 SAVING              RCH IN MODEL TEST_TRANS       PACKAGE TEST_TRANS      CONNECTED TO MODEL TEST_TRANS       PACKAGE RCHA             ON UNIT   1016 AT TIME STEP      7, STRESS PERIOD     19
 UBDSV06 SAVING              CHD IN MODEL TEST_TRANS       PACKAGE TEST_TRANS      CONNECTED TO MODEL TEST_TRANS       PACKAGE CHD              ON UNIT   1016 AT TIME STEP      7, STRESS PERIOD     19

 HEAD WILL BE SAVED ON UNIT 1017 AT END OF TIME STEP    7, STRESS PERIOD   19
 UBDSV1 SAVING           STO-SS ON UNIT   1016 AT TIME STEP      8, STRESS PERIOD     19
 UBDSV1 SAVING           STO-SY ON UNIT   1016 AT TIME STEP      8, STRESS PERIOD     19
 UBDSV1 SAVING     FLOW-JA-FACE ON UNIT   1016 AT TIME STEP      8, STRESS PERIOD     19
 UBDSV06 SAVING              RCH IN MODEL TEST_TRANS       PACKAGE TEST_TRANS      CONNECTED TO MODEL TEST_TRANS       PACKAGE RCHA             ON UNIT   1016 AT TIME STEP      8, STRESS PERIOD     19
 UBDSV06 SAVING              CHD IN MODEL TEST_TRANS       PACKAGE TEST_TRANS      CONNECTED TO MODEL TEST_TRANS       PACKAGE CHD              ON UNIT   1016 AT TIME STEP      8, STRESS PERIOD     19

 HEAD WILL BE SAVED ON UNIT 1017 AT END OF TIME STEP    8, STRESS PERIOD   19
 UBDSV1 SAVING           STO-SS ON UNIT   1016 AT TIME STEP      9, STRESS PERIOD     19
 UBDSV1 SAVING           STO-SY ON UNIT   1016 AT TIME STEP      9, STRESS PERIOD     19
 UBDSV1 SAVING     FLOW-JA-FACE ON UNIT   1016 AT TIME STEP      9, STRESS PERIOD     19
 UBDSV06 SAVING              RCH IN MODEL TEST_TRANS       PACKAGE TEST_TRANS      CONNECTED TO MODEL TEST_TRANS       PACKAGE RCHA             ON UNIT   1016 AT TIME STEP      9, STRESS PERIOD     19
 UBDSV06 SAVING              CHD IN MODEL TEST_TRANS       PACKAGE TEST_TRANS      CONNECTED TO MODEL TEST_TRANS       PACKAGE CHD              ON UNIT   1016 AT TIME STEP      9, STRESS PERIOD     19

 HEAD WILL BE SAVED ON UNIT 1017 AT END OF TIME STEP    9, STRESS PERIOD   19
 UBDSV1 SAVING           STO-SS ON UNIT   1016 AT TIME STEP     10, STRESS PERIOD     19
 UBDSV1 SAVING           STO-SY ON UNIT   1016 AT TIME STEP     10, STRESS PERIOD     19
 UBDSV1 SAVING     FLOW-JA-FACE ON UNIT   1016 AT TIME STEP     10, STRESS PERIOD     19
 UBDSV06 SAVING              RCH IN MODEL TEST_TRANS       PACKAGE TEST_TRANS      CONNECTED TO MODEL TEST_TRANS       PACKAGE RCHA             ON UNIT   1016 AT TIME STEP     10, STRESS PERIOD     19
 UBDSV06 SAVING              CHD IN MODEL TEST_TRANS       PACKAGE TEST_TRANS      CONNECTED TO MODEL TEST_TRANS       PACKAGE CHD              ON UNIT   1016 AT TIME STEP     10, STRESS PERIOD     19
1
  HEAD IN LAYER   1 AT END OF TIME STEP  10 IN STRESS PERIOD   19
  ---------------------------------------------------------------------------

            1           2           3           4           5           6           7           8           9          10
           11          12          13          14          15          16          17          18          19          20
           21          22          23          24          25          26          27          28          29          30
 ........................................................................................................................
   1    27.64       27.63       27.63       27.61       27.60       27.58       27.56       27.54       27.51       27.48    
        27.44       27.40       27.36       27.31       27.26       27.20       27.13       27.06       26.99       26.90    
        26.81       26.71       26.60       26.48       26.35       26.21       26.05       25.88       25.70       25.49    
   2    27.64       27.63       27.63       27.61       27.60       27.58       27.56       27.54       27.51       27.48    
        27.44       27.40       27.36       27.31       27.26       27.20       27.13       27.06       26.99       26.90    
        26.81       26.71       26.60       26.48       26.35       26.21       26.05       25.88       25.70       25.49    
   3    27.64       27.63       27.63       27.61       27.60       27.58       27.56       27.54       27.51       27.48    
        27.44       27.40       27.36       27.31       27.26       27.20       27.13       27.06       26.99       26.90    
        26.81       26.71       26.60       26.48       26.35       26.21       26.05       25.88       25.70       25.49    
   4    27.64       27.63       27.63       27.61       27.60       27.58       27.56       27.54       27.51       27.48    
        27.44       27.40       27.36       27.31       27.26       27.20       27.13       27.06       26.99       26.90    
        26.81       26.71       26.60       26.48       26.35       26.21       26.05       25.88       25.70       25.49    
   5    27.64       27.63       27.63       27.61       27.60       27.58       27.56       27.54       27.51       27.48    
        27.44       27.40       27.36       27.31       27.26       27.20       27.13       27.06       26.99       26.90    
        26.81       26.71       26.60       26.48       26.35       26.21       26.05       25.88       25.70       25.49    
   6    27.64       27.63       27.63       27.61       27.60       27.58       27.56       27.54       27.51       27.48    
        27.44       27.40       27.36       27.31       27.26       27.20       27.13       27.06       26.99       26.90    
        26.81       26.71       26.60       26.48       26.35       26.21       26.05       25.88       25.70       25.49    
   7    27.64       27.63       27.63       27.61       27.60       27.58       27.56       27.54       27.51       27.48    
        27.44       27.40       27.36       27.31       27.26       27.20       27.13       27.06       26.99       26.90    
        26.81       26.71       26.60       26.48       26.35       26.21       26.05       25.88       25.70       25.49    
   8    27.64       27.63       27.63       27.61       27.60       27.58       27.56       27.54       27.51       27.48    
        27.44       27.40       27.36       27.31       27.26       27.20       27.13       27.06       26.99       26.90    
        26.81       26.71       26.60       26.48       26.35       26.21       26.05       25.88       25.70       25.49    
   9    27.64       27.63       27.63       27.61       27.60       27.58       27.56       27.54       27.51       27.48    
        27.44       27.40       27.36       27.31       27.26       27.20       27.13       27.06       26.99       26.90    
        26.81       26.71       26.60       26.48       26.35       26.21       26.05       25.88       25.70       25.49    
  10    27.64       27.63       27.63       27.61       27.60       27.58       27.56       27.54       27.51       27.48    
        27.44       27.40       27.36       27.31       27.26       27.20       27.13       27.06       26.99       26.90    
        26.81       26.71       26.60       26.48       26.35       26.21       26.05       25.88       25.70       25.49    
  11    27.64       27.63       27.63       27.61       27.60       27.58       27.56       27.54       27.51       27.48    
        27.44       27.40       27.36       27.31       27.26       27.20       27.13       27.06       26.99       26.90    
        26.81       26.71       26.60       26.48       26.35       26.21       26.05       25.88       25.70       25.49    
  12    27.64       27.63       27.63       27.61       27.60       27.58       27.56       27.54       27.51       27.48    
        27.44       27.40       27.36       27.31       27.26       27.20       27.13       27.06       26.99       26.90    
        26.81       26.71       26.60       26.48       26.35       26.21       26.05       25.88       25.70       25.49    
  13    27.64       27.63       27.63       27.61       27.60       27.58       27.56       27.54       27.51       27.48    
        27.44       27.40       27.36       27.31       27.26       27.20       27.13       27.06       26.99       26.90    
        26.81       26.71       26.60       26.48       26.35       26.21       26.05       25.88       25.70       25.49    
  14    27.64       27.63       27.63       27.61       27.60       27.58       27.56       27.54       27.51       27.48    
        27.44       27.40       27.36       27.31       27.26       27.20       27.13       27.06       26.99       26.90    
        26.81       26.71       26.60       26.48       26.35       26.21       26.05       25.88       25.70       25.49    
  15    27.64       27.63       27.63       27.61       27.60       27.58       27.56       27.54       27.51       27.48    
        27.44       27.40       27.36       27.31       27.26       27.20       27.13       27.06       26.99       26.90    
        26.81       26.71       26.60       26.48       26.35       26.21       26.05       25.88       25.70       25.49    
  16    27.64       27.63       27.63       27.61       27.60       27.58       27.56       27.54       27.51       27.48    
        27.44       27.40       27.36       27.31       27.26       27.20       27.13       27.06       26.99       26.90    
        26.81       26.71       26.60       26.48       26.35       26.21       26.05       25.88       25.70       25.49    
  17    27.64       27.63       27.63       27.61       27.60       27.58       27.56       27.54       27.51       27.48    
        27.44       27.40       27.36       27.31       27.26       27.20       27.13       27.06       26.99       26.90    
        26.81       26.71       26.60       26.48       26.35       26.21       26.05       25.88       25.70       25.49    
  18    27.64       27.63       27.63       27.61       27.60       27.58       27.56       27.54       27.51       27.48    
        27.44       27.40       27.36       27.31       27.26       27.20       27.13       27.06       26.99       26.90    
        26.81       26.71       26.60       26.48       26.35       26.21       26.05       25.88       25.70       25.49    
  19    27.64       27.63       27.63       27.61       27.60       27.58       27.56       27.54       27.51       27.48    
        27.44       27.40       27.36       27.31       27.26       27.20       27.13       27.06       26.99       26.90    
        26.81       26.71       26.60       26.48       26.35       26.21       26.05       25.88       25.70       25.49    
  20    27.64       27.63       27.63       27.61       27.60       27.58       27.56       27.54       27.51       27.48    
        27.44       27.40       27.36       27.31       27.26       27.20       27.13       27.06       26.99       26.90    
        26.81       26.71       26.60       26.48       26.35       26.21       26.05       25.88       25.70       25.49    
  21    27.64       27.63       27.63       27.61       27.60       27.58       27.56       27.54       27.51       27.48    
        27.44       27.40       27.36       27.31       27.26       27.20       27.13       27.06       26.99       26.90    
        26.81       26.71       26.60       26.48       26.35       26.21       26.05       25.88       25.70       25.49    
  22    27.64       27.63       27.63       27.61       27.60       27.58       27.56       27.54       27.51       27.48    
        27.44       27.40       27.36       27.31       27.26       27.20       27.13       27.06       26.99       26.90    
        26.81       26.71       26.60       26.48       26.35       26.21       26.05       25.88       25.70       25.49    
  23    27.64       27.63       27.63       27.61       27.60       27.58       27.56       27.54       27.51       27.48    
        27.44       27.40       27.36       27.31       27.26       27.20       27.13       27.06       26.99       26.90    
        26.81       26.71       26.60       26.48       26.35       26.21       26.05       25.88       25.70       25.49    
  24    27.64       27.63       27.63       27.61       27.60       27.58       27.56       27.54       27.51       27.48    
        27.44       27.40       27.36       27.31       27.26       27.20       27.13       27.06       26.99       26.90    
        26.81       26.71       26.60       26.48       26.35       26.21       26.05       25.88       25.70       25.49    
  25    27.64       27.63       27.63       27.61       27.60       27.58       27.56       27.54       27.51       27.48    
        27.44       27.40       27.36       27.31       27.26       27.20       27.13       27.06       26.99       26.90    
        26.81       26.71       26.60       26.48       26.35       26.21       26.05       25.88       25.70       25.49    
  26    27.64       27.63       27.63       27.61       27.60       27.58       27.56       27.54       27.51       27.48    
        27.44       27.40       27.36       27.31       27.26       27.20       27.13       27.06       26.99       26.90    
        26.81       26.71       26.60       26.48       26.35       26.21       26.05       25.88       25.70       25.49    
  27    27.64       27.63       27.63       27.61       27.60       27.58       27.56       27.54       27.51       27.48    
        27.44       27.40       27.36       27.31       27.26       27.20       27.13       27.06       26.99       26.90    
        26.81       26.71       26.60       26.48       26.35       26.21       26.05       25.88       25.70       25.49    
  28    27.64       27.63       27.63       27.61       27.60       27.58       27.56       27.54       27.51       27.48    
        27.44       27.40       27.36       27.31       27.26       27.20       27.13       27.06       26.99       26.90    
        26.81       26.71       26.60       26.48       26.35       26.21       26.05       25.88       25.70       25.49    
  29    27.64       27.63       27.63       27.61       27.60       27.58       27.56       27.54       27.51       27.48    
        27.44       27.40       27.36       27.31       27.26       27.20       27.13       27.06       26.99       26.90    
        26.81       26.71       26.60       26.48       26.35       26.21       26.05       25.88       25.70       25.49    
  30    27.64       27.63       27.63       27.61       27.60       27.58       27.56       27.54       27.51       27.48    
        27.44       27.40       27.36       27.31       27.26       27.20       27.13       27.06       26.99       26.90    
        26.81       26.71       26.60       26.48       26.35       26.21       26.05       25.88       25.70       25.49    

 HEAD WILL BE SAVED ON UNIT 1017 AT END OF TIME STEP   10, STRESS PERIOD   19


  VOLUME BUDGET FOR ENTIRE MODEL AT END OF TIME STEP   10, STRESS PERIOD  19
  ---------------------------------------------------------------------------------------------------

     CUMULATIVE VOLUME      L**3       RATES FOR THIS TIME STEP      L**3/T          PACKAGE NAME    
     ------------------                 ------------------------                     ----------------

           IN:                                      IN:
           ---                                      ---
              STO-SS =          36.1251                STO-SS =           0.1384     STORAGE         
              STO-SY =       23094.8677                STO-SY =          89.0521     STORAGE         
                 RCH =       86046.6114                   RCH =          47.6712     RCHA            
                 CHD =        2273.1987                   CHD =           0.0000     CHD             

            TOTAL IN =      111450.8029              TOTAL IN =         136.8617

          OUT:                                     OUT:
          ----                                     ----
              STO-SS =          25.5356                STO-SS =           0.0000     STORAGE         
              STO-SY =       16741.8534                STO-SY =           0.0000     STORAGE         
                 RCH =           0.0000                   RCH =           0.0000     RCHA            
                 CHD =       94682.9033                   CHD =         136.8534     CHD             

           TOTAL OUT =      111450.2923             TOTAL OUT =         136.8534

            IN - OUT =           0.5106              IN - OUT =       8.3337E-03

 PERCENT DISCREPANCY =           0.00     PERCENT DISCREPANCY =           0.01




         TIME SUMMARY AT END OF TIME STEP   10 IN STRESS PERIOD   19
                    SECONDS     MINUTES      HOURS       DAYS        YEARS
                    -----------------------------------------------------------
   TIME STEP LENGTH 2.59200E+05  4320.0      72.000      3.0000     8.21355E-03
 STRESS PERIOD TIME 2.59200E+06  43200.      720.00      30.000     8.21355E-02
         TOTAL TIME 4.67424E+07 7.79040E+05  12984.      541.00      1.4812    

 OUTPUT CONTROL FOR STRESS PERIOD 20 IS REPEATED USING SETTINGS FROM A PREVIOUS STRESS PERIOD.


 STRESS PERIOD 20 IS TRANSIENT


                 RECHARGE =  0.1095890E-02
 UBDSV1 SAVING           STO-SS ON UNIT   1016 AT TIME STEP      1, STRESS PERIOD     20
 UBDSV1 SAVING           STO-SY ON UNIT   1016 AT TIME STEP      1, STRESS PERIOD     20
 UBDSV1 SAVING     FLOW-JA-FACE ON UNIT   1016 AT TIME STEP      1, STRESS PERIOD     20
 UBDSV06 SAVING              RCH IN MODEL TEST_TRANS       PACKAGE TEST_TRANS      CONNECTED TO MODEL TEST_TRANS       PACKAGE RCHA             ON UNIT   1016 AT TIME STEP      1, STRESS PERIOD     20
 UBDSV06 SAVING              CHD IN MODEL TEST_TRANS       PACKAGE TEST_TRANS      CONNECTED TO MODEL TEST_TRANS       PACKAGE CHD              ON UNIT   1016 AT TIME STEP      1, STRESS PERIOD     20
1
  HEAD IN LAYER   1 AT END OF TIME STEP   1 IN STRESS PERIOD   20
  ---------------------------------------------------------------------------

            1           2           3           4           5           6           7           8           9          10
           11          12          13          14          15          16          17          18          19          20
           21          22          23          24          25          26          27          28          29          30
 ........................................................................................................................
   1    27.63       27.63       27.62       27.61       27.60       27.58       27.56       27.53       27.51       27.47    
        27.44       27.40       27.35       27.30       27.25       27.19       27.12       27.05       26.97       26.89    
        26.80       26.69       26.58       26.46       26.32       26.17       26.00       25.79       25.54       25.20    
   2    27.63       27.63       27.62       27.61       27.60       27.58       27.56       27.53       27.51       27.47    
        27.44       27.40       27.35       27.30       27.25       27.19       27.12       27.05       26.97       26.89    
        26.80       26.69       26.58       26.46       26.32       26.17       26.00       25.79       25.54       25.20    
   3    27.63       27.63       27.62       27.61       27.60       27.58       27.56       27.53       27.51       27.47    
        27.44       27.40       27.35       27.30       27.25       27.19       27.12       27.05       26.97       26.89    
        26.80       26.69       26.58       26.46       26.32       26.17       26.00       25.79       25.54       25.20    
   4    27.63       27.63       27.62       27.61       27.60       27.58       27.56       27.53       27.51       27.47    
        27.44       27.40       27.35       27.30       27.25       27.19       27.12       27.05       26.97       26.89    
        26.80       26.69       26.58       26.46       26.32       26.17       26.00       25.79       25.54       25.20    
   5    27.63       27.63       27.62       27.61       27.60       27.58       27.56       27.53       27.51       27.47    
        27.44       27.40       27.35       27.30       27.25       27.19       27.12       27.05       26.97       26.89    
        26.80       26.69       26.58       26.46       26.32       26.17       26.00       25.79       25.54       25.20    
   6    27.63       27.63       27.62       27.61       27.60       27.58       27.56       27.53       27.51       27.47    
        27.44       27.40       27.35       27.30       27.25       27.19       27.12       27.05       26.97       26.89    
        26.80       26.69       26.58       26.46       26.32       26.17       26.00       25.79       25.54       25.20    
   7    27.63       27.63       27.62       27.61       27.60       27.58       27.56       27.53       27.51       27.47    
        27.44       27.40       27.35       27.30       27.25       27.19       27.12       27.05       26.97       26.89    
        26.80       26.69       26.58       26.46       26.32       26.17       26.00       25.79       25.54       25.20    
   8    27.63       27.63       27.62       27.61       27.60       27.58       27.56       27.53       27.51       27.47    
        27.44       27.40       27.35       27.30       27.25       27.19       27.12       27.05       26.97       26.89    
        26.80       26.69       26.58       26.46       26.32       26.17       26.00       25.79       25.54       25.20    
   9    27.63       27.63       27.62       27.61       27.60       27.58       27.56       27.53       27.51       27.47    
        27.44       27.40       27.35       27.30       27.25       27.19       27.12       27.05       26.97       26.89    
        26.80       26.69       26.58       26.46       26.32       26.17       26.00       25.79       25.54       25.20    
  10    27.63       27.63       27.62       27.61       27.60       27.58       27.56       27.53       27.51       27.47    
        27.44       27.40       27.35       27.30       27.25       27.19       27.12       27.05       26.97       26.89    
        26.80       26.69       26.58       26.46       26.32       26.17       26.00       25.79       25.54       25.20    
  11    27.63       27.63       27.62       27.61       27.60       27.58       27.56       27.53       27.51       27.47    
        27.44       27.40       27.35       27.30       27.25       27.19       27.12       27.05       26.97       26.89    
        26.80       26.69       26.58       26.46       26.32       26.17       26.00       25.79       25.54       25.20    
  12    27.63       27.63       27.62       27.61       27.60       27.58       27.56       27.53       27.51       27.47    
        27.44       27.40       27.35       27.30       27.25       27.19       27.12       27.05       26.97       26.89    
        26.80       26.69       26.58       26.46       26.32       26.17       26.00       25.79       25.54       25.20    
  13    27.63       27.63       27.62       27.61       27.60       27.58       27.56       27.53       27.51       27.47    
        27.44       27.40       27.35       27.30       27.25       27.19       27.12       27.05       26.97       26.89    
        26.80       26.69       26.58       26.46       26.32       26.17       26.00       25.79       25.54       25.20    
  14    27.63       27.63       27.62       27.61       27.60       27.58       27.56       27.53       27.51       27.47    
        27.44       27.40       27.35       27.30       27.25       27.19       27.12       27.05       26.97       26.89    
        26.80       26.69       26.58       26.46       26.32       26.17       26.00       25.79       25.54       25.20    
  15    27.63       27.63       27.62       27.61       27.60       27.58       27.56       27.53       27.51       27.47    
        27.44       27.40       27.35       27.30       27.25       27.19       27.12       27.05       26.97       26.89    
        26.80       26.69       26.58       26.46       26.32       26.17       26.00       25.79       25.54       25.20    
  16    27.63       27.63       27.62       27.61       27.60       27.58       27.56       27.53       27.51       27.47    
        27.44       27.40       27.35       27.30       27.25       27.19       27.12       27.05       26.97       26.89    
        26.80       26.69       26.58       26.46       26.32       26.17       26.00       25.79       25.54       25.20    
  17    27.63       27.63       27.62       27.61       27.60       27.58       27.56       27.53       27.51       27.47    
        27.44       27.40       27.35       27.30       27.25       27.19       27.12       27.05       26.97       26.89    
        26.80       26.69       26.58       26.46       26.32       26.17       26.00       25.79       25.54       25.20    
  18    27.63       27.63       27.62       27.61       27.60       27.58       27.56       27.53       27.51       27.47    
        27.44       27.40       27.35       27.30       27.25       27.19       27.12       27.05       26.97       26.89    
        26.80       26.69       26.58       26.46       26.32       26.17       26.00       25.79       25.54       25.20    
  19    27.63       27.63       27.62       27.61       27.60       27.58       27.56       27.53       27.51       27.47    
        27.44       27.40       27.35       27.30       27.25       27.19       27.12       27.05       26.97       26.89    
        26.80       26.69       26.58       26.46       26.32       26.17       26.00       25.79       25.54       25.20    
  20    27.63       27.63       27.62       27.61       27.60       27.58       27.56       27.53       27.51       27.47    
        27.44       27.40       27.35       27.30       27.25       27.19       27.12       27.05       26.97       26.89    
        26.80       26.69       26.58       26.46       26.32       26.17       26.00       25.79       25.54       25.20    
  21    27.63       27.63       27.62       27.61       27.60       27.58       27.56       27.53       27.51       27.47    
        27.44       27.40       27.35       27.30       27.25       27.19       27.12       27.05       26.97       26.89    
        26.80       26.69       26.58       26.46       26.32       26.17       26.00       25.79       25.54       25.20    
  22    27.63       27.63       27.62       27.61       27.60       27.58       27.56       27.53       27.51       27.47    
        27.44       27.40       27.35       27.30       27.25       27.19       27.12       27.05       26.97       26.89    
        26.80       26.69       26.58       26.46       26.32       26.17       26.00       25.79       25.54       25.20    
  23    27.63       27.63       27.62       27.61       27.60       27.58       27.56       27.53       27.51       27.47    
        27.44       27.40       27.35       27.30       27.25       27.19       27.12       27.05       26.97       26.89    
        26.80       26.69       26.58       26.46       26.32       26.17       26.00       25.79       25.54       25.20    
  24    27.63       27.63       27.62       27.61       27.60       27.58       27.56       27.53       27.51       27.47    
        27.44       27.40       27.35       27.30       27.25       27.19       27.12       27.05       26.97       26.89    
        26.80       26.69       26.58       26.46       26.32       26.17       26.00       25.79       25.54       25.20    
  25    27.63       27.63       27.62       27.61       27.60       27.58       27.56       27.53       27.51       27.47    
        27.44       27.40       27.35       27.30       27.25       27.19       27.12       27.05       26.97       26.89    
        26.80       26.69       26.58       26.46       26.32       26.17       26.00       25.79       25.54       25.20    
  26    27.63       27.63       27.62       27.61       27.60       27.58       27.56       27.53       27.51       27.47    
        27.44       27.40       27.35       27.30       27.25       27.19       27.12       27.05       26.97       26.89    
        26.80       26.69       26.58       26.46       26.32       26.17       26.00       25.79       25.54       25.20    
  27    27.63       27.63       27.62       27.61       27.60       27.58       27.56       27.53       27.51       27.47    
        27.44       27.40       27.35       27.30       27.25       27.19       27.12       27.05       26.97       26.89    
        26.80       26.69       26.58       26.46       26.32       26.17       26.00       25.79       25.54       25.20    
  28    27.63       27.63       27.62       27.61       27.60       27.58       27.56       27.53       27.51       27.47    
        27.44       27.40       27.35       27.30       27.25       27.19       27.12       27.05       26.97       26.89    
        26.80       26.69       26.58       26.46       26.32       26.17       26.00       25.79       25.54       25.20    
  29    27.63       27.63       27.62       27.61       27.60       27.58       27.56       27.53       27.51       27.47    
        27.44       27.40       27.35       27.30       27.25       27.19       27.12       27.05       26.97       26.89    
        26.80       26.69       26.58       26.46       26.32       26.17       26.00       25.79       25.54       25.20    
  30    27.63       27.63       27.62       27.61       27.60       27.58       27.56       27.53       27.51       27.47    
        27.44       27.40       27.35       27.30       27.25       27.19       27.12       27.05       26.97       26.89    
        26.80       26.69       26.58       26.46       26.32       26.17       26.00       25.79       25.54       25.20    

 HEAD WILL BE SAVED ON UNIT 1017 AT END OF TIME STEP    1, STRESS PERIOD   20



         TIME SUMMARY AT END OF TIME STEP    1 IN STRESS PERIOD   20
                    SECONDS     MINUTES      HOURS       DAYS        YEARS
                    -----------------------------------------------------------
   TIME STEP LENGTH 2.59200E+05  4320.0      72.000      3.0000     8.21355E-03
 STRESS PERIOD TIME 2.59200E+05  4320.0      72.000      3.0000     8.21355E-03
         TOTAL TIME 4.70016E+07 7.83360E+05  13056.      544.00      1.4894    
 UBDSV1 SAVING           STO-SS ON UNIT   1016 AT TIME STEP      2, STRESS PERIOD     20
 UBDSV1 SAVING           STO-SY ON UNIT   1016 AT TIME STEP      2, STRESS PERIOD     20
 UBDSV1 SAVING     FLOW-JA-FACE ON UNIT   1016 AT TIME STEP      2, STRESS PERIOD     20
 UBDSV06 SAVING              RCH IN MODEL TEST_TRANS       PACKAGE TEST_TRANS      CONNECTED TO MODEL TEST_TRANS       PACKAGE RCHA             ON UNIT   1016 AT TIME STEP      2, STRESS PERIOD     20
 UBDSV06 SAVING              CHD IN MODEL TEST_TRANS       PACKAGE TEST_TRANS      CONNECTED TO MODEL TEST_TRANS       PACKAGE CHD              ON UNIT   1016 AT TIME STEP      2, STRESS PERIOD     20

 HEAD WILL BE SAVED ON UNIT 1017 AT END OF TIME STEP    2, STRESS PERIOD   20
 UBDSV1 SAVING           STO-SS ON UNIT   1016 AT TIME STEP      3, STRESS PERIOD     20
 UBDSV1 SAVING           STO-SY ON UNIT   1016 AT TIME STEP      3, STRESS PERIOD     20
 UBDSV1 SAVING     FLOW-JA-FACE ON UNIT   1016 AT TIME STEP      3, STRESS PERIOD     20
 UBDSV06 SAVING              RCH IN MODEL TEST_TRANS       PACKAGE TEST_TRANS      CONNECTED TO MODEL TEST_TRANS       PACKAGE RCHA             ON UNIT   1016 AT TIME STEP      3, STRESS PERIOD     20
 UBDSV06 SAVING              CHD IN MODEL TEST_TRANS       PACKAGE TEST_TRANS      CONNECTED TO MODEL TEST_TRANS       PACKAGE CHD              ON UNIT   1016 AT TIME STEP      3, STRESS PERIOD     20

 HEAD WILL BE SAVED ON UNIT 1017 AT END OF TIME STEP    3, STRESS PERIOD   20
 UBDSV1 SAVING           STO-SS ON UNIT   1016 AT TIME STEP      4, STRESS PERIOD     20
 UBDSV1 SAVING           STO-SY ON UNIT   1016 AT TIME STEP      4, STRESS PERIOD     20
 UBDSV1 SAVING     FLOW-JA-FACE ON UNIT   1016 AT TIME STEP      4, STRESS PERIOD     20
 UBDSV06 SAVING              RCH IN MODEL TEST_TRANS       PACKAGE TEST_TRANS      CONNECTED TO MODEL TEST_TRANS       PACKAGE RCHA             ON UNIT   1016 AT TIME STEP      4, STRESS PERIOD     20
 UBDSV06 SAVING              CHD IN MODEL TEST_TRANS       PACKAGE TEST_TRANS      CONNECTED TO MODEL TEST_TRANS       PACKAGE CHD              ON UNIT   1016 AT TIME STEP      4, STRESS PERIOD     20

 HEAD WILL BE SAVED ON UNIT 1017 AT END OF TIME STEP    4, STRESS PERIOD   20
 UBDSV1 SAVING           STO-SS ON UNIT   1016 AT TIME STEP      5, STRESS PERIOD     20
 UBDSV1 SAVING           STO-SY ON UNIT   1016 AT TIME STEP      5, STRESS PERIOD     20
 UBDSV1 SAVING     FLOW-JA-FACE ON UNIT   1016 AT TIME STEP      5, STRESS PERIOD     20
 UBDSV06 SAVING              RCH IN MODEL TEST_TRANS       PACKAGE TEST_TRANS      CONNECTED TO MODEL TEST_TRANS       PACKAGE RCHA             ON UNIT   1016 AT TIME STEP      5, STRESS PERIOD     20
 UBDSV06 SAVING              CHD IN MODEL TEST_TRANS       PACKAGE TEST_TRANS      CONNECTED TO MODEL TEST_TRANS       PACKAGE CHD              ON UNIT   1016 AT TIME STEP      5, STRESS PERIOD     20

 HEAD WILL BE SAVED ON UNIT 1017 AT END OF TIME STEP    5, STRESS PERIOD   20
 UBDSV1 SAVING           STO-SS ON UNIT   1016 AT TIME STEP      6, STRESS PERIOD     20
 UBDSV1 SAVING           STO-SY ON UNIT   1016 AT TIME STEP      6, STRESS PERIOD     20
 UBDSV1 SAVING     FLOW-JA-FACE ON UNIT   1016 AT TIME STEP      6, STRESS PERIOD     20
 UBDSV06 SAVING              RCH IN MODEL TEST_TRANS       PACKAGE TEST_TRANS      CONNECTED TO MODEL TEST_TRANS       PACKAGE RCHA             ON UNIT   1016 AT TIME STEP      6, STRESS PERIOD     20
 UBDSV06 SAVING              CHD IN MODEL TEST_TRANS       PACKAGE TEST_TRANS      CONNECTED TO MODEL TEST_TRANS       PACKAGE CHD              ON UNIT   1016 AT TIME STEP      6, STRESS PERIOD     20

 HEAD WILL BE SAVED ON UNIT 1017 AT END OF TIME STEP    6, STRESS PERIOD   20
 UBDSV1 SAVING           STO-SS ON UNIT   1016 AT TIME STEP      7, STRESS PERIOD     20
 UBDSV1 SAVING           STO-SY ON UNIT   1016 AT TIME STEP      7, STRESS PERIOD     20
 UBDSV1 SAVING     FLOW-JA-FACE ON UNIT   1016 AT TIME STEP      7, STRESS PERIOD     20
 UBDSV06 SAVING              RCH IN MODEL TEST_TRANS       PACKAGE TEST_TRANS      CONNECTED TO MODEL TEST_TRANS       PACKAGE RCHA             ON UNIT   1016 AT TIME STEP      7, STRESS PERIOD     20
 UBDSV06 SAVING              CHD IN MODEL TEST_TRANS       PACKAGE TEST_TRANS      CONNECTED TO MODEL TEST_TRANS       PACKAGE CHD              ON UNIT   1016 AT TIME STEP      7, STRESS PERIOD     20

 HEAD WILL BE SAVED ON UNIT 1017 AT END OF TIME STEP    7, STRESS PERIOD   20
 UBDSV1 SAVING           STO-SS ON UNIT   1016 AT TIME STEP      8, STRESS PERIOD     20
 UBDSV1 SAVING           STO-SY ON UNIT   1016 AT TIME STEP      8, STRESS PERIOD     20
 UBDSV1 SAVING     FLOW-JA-FACE ON UNIT   1016 AT TIME STEP      8, STRESS PERIOD     20
 UBDSV06 SAVING              RCH IN MODEL TEST_TRANS       PACKAGE TEST_TRANS      CONNECTED TO MODEL TEST_TRANS       PACKAGE RCHA             ON UNIT   1016 AT TIME STEP      8, STRESS PERIOD     20
 UBDSV06 SAVING              CHD IN MODEL TEST_TRANS       PACKAGE TEST_TRANS      CONNECTED TO MODEL TEST_TRANS       PACKAGE CHD              ON UNIT   1016 AT TIME STEP      8, STRESS PERIOD     20

 HEAD WILL BE SAVED ON UNIT 1017 AT END OF TIME STEP    8, STRESS PERIOD   20
 UBDSV1 SAVING           STO-SS ON UNIT   1016 AT TIME STEP      9, STRESS PERIOD     20
 UBDSV1 SAVING           STO-SY ON UNIT   1016 AT TIME STEP      9, STRESS PERIOD     20
 UBDSV1 SAVING     FLOW-JA-FACE ON UNIT   1016 AT TIME STEP      9, STRESS PERIOD     20
 UBDSV06 SAVING              RCH IN MODEL TEST_TRANS       PACKAGE TEST_TRANS      CONNECTED TO MODEL TEST_TRANS       PACKAGE RCHA             ON UNIT   1016 AT TIME STEP      9, STRESS PERIOD     20
 UBDSV06 SAVING              CHD IN MODEL TEST_TRANS       PACKAGE TEST_TRANS      CONNECTED TO MODEL TEST_TRANS       PACKAGE CHD              ON UNIT   1016 AT TIME STEP      9, STRESS PERIOD     20

 HEAD WILL BE SAVED ON UNIT 1017 AT END OF TIME STEP    9, STRESS PERIOD   20
 UBDSV1 SAVING           STO-SS ON UNIT   1016 AT TIME STEP     10, STRESS PERIOD     20
 UBDSV1 SAVING           STO-SY ON UNIT   1016 AT TIME STEP     10, STRESS PERIOD     20
 UBDSV1 SAVING     FLOW-JA-FACE ON UNIT   1016 AT TIME STEP     10, STRESS PERIOD     20
 UBDSV06 SAVING              RCH IN MODEL TEST_TRANS       PACKAGE TEST_TRANS      CONNECTED TO MODEL TEST_TRANS       PACKAGE RCHA             ON UNIT   1016 AT TIME STEP     10, STRESS PERIOD     20
 UBDSV06 SAVING              CHD IN MODEL TEST_TRANS       PACKAGE TEST_TRANS      CONNECTED TO MODEL TEST_TRANS       PACKAGE CHD              ON UNIT   1016 AT TIME STEP     10, STRESS PERIOD     20
1
  HEAD IN LAYER   1 AT END OF TIME STEP  10 IN STRESS PERIOD   20
  ---------------------------------------------------------------------------

            1           2           3           4           5           6           7           8           9          10
           11          12          13          14          15          16          17          18          19          20
           21          22          23          24          25          26          27          28          29          30
 ........................................................................................................................
   1    27.59       27.58       27.58       27.56       27.55       27.53       27.51       27.48       27.45       27.41    
        27.37       27.33       27.28       27.22       27.16       27.10       27.03       26.95       26.86       26.77    
        26.67       26.56       26.44       26.31       26.16       26.01       25.84       25.65       25.44       25.20    
   2    27.59       27.58       27.58       27.56       27.55       27.53       27.51       27.48       27.45       27.41    
        27.37       27.33       27.28       27.22       27.16       27.10       27.03       26.95       26.86       26.77    
        26.67       26.56       26.44       26.31       26.16       26.01       25.84       25.65       25.44       25.20    
   3    27.59       27.58       27.58       27.56       27.55       27.53       27.51       27.48       27.45       27.41    
        27.37       27.33       27.28       27.22       27.16       27.10       27.03       26.95       26.86       26.77    
        26.67       26.56       26.44       26.31       26.16       26.01       25.84       25.65       25.44       25.20    
   4    27.59       27.58       27.58       27.56       27.55       27.53       27.51       27.48       27.45       27.41    
        27.37       27.33       27.28       27.22       27.16       27.10       27.03       26.95       26.86       26.77    
        26.67       26.56       26.44       26.31       26.16       26.01       25.84       25.65       25.44       25.20    
   5    27.59       27.58       27.58       27.56       27.55       27.53       27.51       27.48       27.45       27.41    
        27.37       27.33       27.28       27.22       27.16       27.10       27.03       26.95       26.86       26.77    
        26.67       26.56       26.44       26.31       26.16       26.01       25.84       25.65       25.44       25.20    
   6    27.59       27.58       27.58       27.56       27.55       27.53       27.51       27.48       27.45       27.41    
        27.37       27.33       27.28       27.22       27.16       27.10       27.03       26.95       26.86       26.77    
        26.67       26.56       26.44       26.31       26.16       26.01       25.84       25.65       25.44       25.20    
   7    27.59       27.58       27.58       27.56       27.55       27.53       27.51       27.48       27.45       27.41    
        27.37       27.33       27.28       27.22       27.16       27.10       27.03       26.95       26.86       26.77    
        26.67       26.56       26.44       26.31       26.16       26.01       25.84       25.65       25.44       25.20    
   8    27.59       27.58       27.58       27.56       27.55       27.53       27.51       27.48       27.45       27.41    
        27.37       27.33       27.28       27.22       27.16       27.10       27.03       26.95       26.86       26.77    
        26.67       26.56       26.44       26.31       26.16       26.01       25.84       25.65       25.44       25.20    
   9    27.59       27.58       27.58       27.56       27.55       27.53       27.51       27.48       27.45       27.41    
        27.37       27.33       27.28       27.22       27.16       27.10       27.03       26.95       26.86       26.77    
        26.67       26.56       26.44       26.31       26.16       26.01       25.84       25.65       25.44       25.20    
  10    27.59       27.58       27.58       27.56       27.55       27.53       27.51       27.48       27.45       27.41    
        27.37       27.33       27.28       27.22       27.16       27.10       27.03       26.95       26.86       26.77    
        26.67       26.56       26.44       26.31       26.16       26.01       25.84       25.65       25.44       25.20    
  11    27.59       27.58       27.58       27.56       27.55       27.53       27.51       27.48       27.45       27.41    
        27.37       27.33       27.28       27.22       27.16       27.10       27.03       26.95       26.86       26.77    
        26.67       26.56       26.44       26.31       26.16       26.01       25.84       25.65       25.44       25.20    
  12    27.59       27.58       27.58       27.56       27.55       27.53       27.51       27.48       27.45       27.41    
        27.37       27.33       27.28       27.22       27.16       27.10       27.03       26.95       26.86       26.77    
        26.67       26.56       26.44       26.31       26.16       26.01       25.84       25.65       25.44       25.20    
  13    27.59       27.58       27.58       27.56       27.55       27.53       27.51       27.48       27.45       27.41    
        27.37       27.33       27.28       27.22       27.16       27.10       27.03       26.95       26.86       26.77    
        26.67       26.56       26.44       26.31       26.16       26.01       25.84       25.65       25.44       25.20    
  14    27.59       27.58       27.58       27.56       27.55       27.53       27.51       27.48       27.45       27.41    
        27.37       27.33       27.28       27.22       27.16       27.10       27.03       26.95       26.86       26.77    
        26.67       26.56       26.44       26.31       26.16       26.01       25.84       25.65       25.44       25.20    
  15    27.59       27.58       27.58       27.56       27.55       27.53       27.51       27.48       27.45       27.41    
        27.37       27.33       27.28       27.22       27.16       27.10       27.03       26.95       26.86       26.77    
        26.67       26.56       26.44       26.31       26.16       26.01       25.84       25.65       25.44       25.20    
  16    27.59       27.58       27.58       27.56       27.55       27.53       27.51       27.48       27.45       27.41    
        27.37       27.33       27.28       27.22       27.16       27.10       27.03       26.95       26.86       26.77    
        26.67       26.56       26.44       26.31       26.16       26.01       25.84       25.65       25.44       25.20    
  17    27.59       27.58       27.58       27.56       27.55       27.53       27.51       27.48       27.45       27.41    
        27.37       27.33       27.28       27.22       27.16       27.10       27.03       26.95       26.86       26.77    
        26.67       26.56       26.44       26.31       26.16       26.01       25.84       25.65       25.44       25.20    
  18    27.59       27.58       27.58       27.56       27.55       27.53       27.51       27.48       27.45       27.41    
        27.37       27.33       27.28       27.22       27.16       27.10       27.03       26.95       26.86       26.77    
        26.67       26.56       26.44       26.31       26.16       26.01       25.84       25.65       25.44       25.20    
  19    27.59       27.58       27.58       27.56       27.55       27.53       27.51       27.48       27.45       27.41    
        27.37       27.33       27.28       27.22       27.16       27.10       27.03       26.95       26.86       26.77    
        26.67       26.56       26.44       26.31       26.16       26.01       25.84       25.65       25.44       25.20    
  20    27.59       27.58       27.58       27.56       27.55       27.53       27.51       27.48       27.45       27.41    
        27.37       27.33       27.28       27.22       27.16       27.10       27.03       26.95       26.86       26.77    
        26.67       26.56       26.44       26.31       26.16       26.01       25.84       25.65       25.44       25.20    
  21    27.59       27.58       27.58       27.56       27.55       27.53       27.51       27.48       27.45       27.41    
        27.37       27.33       27.28       27.22       27.16       27.10       27.03       26.95       26.86       26.77    
        26.67       26.56       26.44       26.31       26.16       26.01       25.84       25.65       25.44       25.20    
  22    27.59       27.58       27.58       27.56       27.55       27.53       27.51       27.48       27.45       27.41    
        27.37       27.33       27.28       27.22       27.16       27.10       27.03       26.95       26.86       26.77    
        26.67       26.56       26.44       26.31       26.16       26.01       25.84       25.65       25.44       25.20    
  23    27.59       27.58       27.58       27.56       27.55       27.53       27.51       27.48       27.45       27.41    
        27.37       27.33       27.28       27.22       27.16       27.10       27.03       26.95       26.86       26.77    
        26.67       26.56       26.44       26.31       26.16       26.01       25.84       25.65       25.44       25.20    
  24    27.59       27.58       27.58       27.56       27.55       27.53       27.51       27.48       27.45       27.41    
        27.37       27.33       27.28       27.22       27.16       27.10       27.03       26.95       26.86       26.77    
        26.67       26.56       26.44       26.31       26.16       26.01       25.84       25.65       25.44       25.20    
  25    27.59       27.58       27.58       27.56       27.55       27.53       27.51       27.48       27.45       27.41    
        27.37       27.33       27.28       27.22       27.16       27.10       27.03       26.95       26.86       26.77    
        26.67       26.56       26.44       26.31       26.16       26.01       25.84       25.65       25.44       25.20    
  26    27.59       27.58       27.58       27.56       27.55       27.53       27.51       27.48       27.45       27.41    
        27.37       27.33       27.28       27.22       27.16       27.10       27.03       26.95       26.86       26.77    
        26.67       26.56       26.44       26.31       26.16       26.01       25.84       25.65       25.44       25.20    
  27    27.59       27.58       27.58       27.56       27.55       27.53       27.51       27.48       27.45       27.41    
        27.37       27.33       27.28       27.22       27.16       27.10       27.03       26.95       26.86       26.77    
        26.67       26.56       26.44       26.31       26.16       26.01       25.84       25.65       25.44       25.20    
  28    27.59       27.58       27.58       27.56       27.55       27.53       27.51       27.48       27.45       27.41    
        27.37       27.33       27.28       27.22       27.16       27.10       27.03       26.95       26.86       26.77    
        26.67       26.56       26.44       26.31       26.16       26.01       25.84       25.65       25.44       25.20    
  29    27.59       27.58       27.58       27.56       27.55       27.53       27.51       27.48       27.45       27.41    
        27.37       27.33       27.28       27.22       27.16       27.10       27.03       26.95       26.86       26.77    
        26.67       26.56       26.44       26.31       26.16       26.01       25.84       25.65       25.44       25.20    
  30    27.59       27.58       27.58       27.56       27.55       27.53       27.51       27.48       27.45       27.41    
        27.37       27.33       27.28       27.22       27.16       27.10       27.03       26.95       26.86       26.77    
        26.67       26.56       26.44       26.31       26.16       26.01       25.84       25.65       25.44       25.20    

 HEAD WILL BE SAVED ON UNIT 1017 AT END OF TIME STEP   10, STRESS PERIOD   20


  VOLUME BUDGET FOR ENTIRE MODEL AT END OF TIME STEP   10, STRESS PERIOD  20
  ---------------------------------------------------------------------------------------------------

     CUMULATIVE VOLUME      L**3       RATES FOR THIS TIME STEP      L**3/T          PACKAGE NAME    
     ------------------                 ------------------------                     ----------------

           IN:                                      IN:
           ---                                      ---
              STO-SS =          39.0965                STO-SS =       7.2685E-02     STORAGE         
              STO-SY =       25053.3324                STO-SY =          47.0990     STORAGE         
                 RCH =       88906.8843                   RCH =          95.3424     RCHA            
                 CHD =        2273.1987                   CHD =           0.0000     CHD             

            TOTAL IN =      116272.5119              TOTAL IN =         142.5142

          OUT:                                     OUT:
          ----                                     ----
              STO-SS =          25.5356                STO-SS =           0.0000     STORAGE         
              STO-SY =       16741.8534                STO-SY =           0.0000     STORAGE         
                 RCH =           0.0000                   RCH =           0.0000     RCHA            
                 CHD =       99504.5099                   CHD =         142.5097     CHD             

           TOTAL OUT =      116271.8988             TOTAL OUT =         142.5097

            IN - OUT =           0.6131              IN - OUT =       4.4607E-03

 PERCENT DISCREPANCY =           0.00     PERCENT DISCREPANCY =           0.00




         TIME SUMMARY AT END OF TIME STEP   10 IN STRESS PERIOD   20
                    SECONDS     MINUTES      HOURS       DAYS        YEARS
                    -----------------------------------------------------------
   TIME STEP LENGTH 2.59200E+05  4320.0      72.000      3.0000     8.21355E-03
 STRESS PERIOD TIME 2.59200E+06  43200.      720.00      30.000     8.21355E-02
         TOTAL TIME 4.93344E+07 8.22240E+05  13704.      571.00      1.5633    

 OUTPUT CONTROL FOR STRESS PERIOD 21 IS REPEATED USING SETTINGS FROM A PREVIOUS STRESS PERIOD.


 STRESS PERIOD 21 IS TRANSIENT


                 RECHARGE =  0.1643840E-02
 UBDSV1 SAVING           STO-SS ON UNIT   1016 AT TIME STEP      1, STRESS PERIOD     21
 UBDSV1 SAVING           STO-SY ON UNIT   1016 AT TIME STEP      1, STRESS PERIOD     21
 UBDSV1 SAVING     FLOW-JA-FACE ON UNIT   1016 AT TIME STEP      1, STRESS PERIOD     21
 UBDSV06 SAVING              RCH IN MODEL TEST_TRANS       PACKAGE TEST_TRANS      CONNECTED TO MODEL TEST_TRANS       PACKAGE RCHA             ON UNIT   1016 AT TIME STEP      1, STRESS PERIOD     21
 UBDSV06 SAVING              CHD IN MODEL TEST_TRANS       PACKAGE TEST_TRANS      CONNECTED TO MODEL TEST_TRANS       PACKAGE CHD              ON UNIT   1016 AT TIME STEP      1, STRESS PERIOD     21
1
  HEAD IN LAYER   1 AT END OF TIME STEP   1 IN STRESS PERIOD   21
  ---------------------------------------------------------------------------

            1           2           3           4           5           6           7           8           9          10
           11          12          13          14          15          16          17          18          19          20
           21          22          23          24          25          26          27          28          29          30
 ........................................................................................................................
   1    27.59       27.59       27.58       27.57       27.55       27.53       27.51       27.48       27.45       27.41    
        27.37       27.33       27.28       27.22       27.16       27.10       27.02       26.95       26.86       26.77    
        26.66       26.55       26.43       26.30       26.15       25.99       25.80       25.58       25.31       24.94    
   2    27.59       27.59       27.58       27.57       27.55       27.53       27.51       27.48       27.45       27.41    
        27.37       27.33       27.28       27.22       27.16       27.10       27.02       26.95       26.86       26.77    
        26.66       26.55       26.43       26.30       26.15       25.99       25.80       25.58       25.31       24.94    
   3    27.59       27.59       27.58       27.57       27.55       27.53       27.51       27.48       27.45       27.41    
        27.37       27.33       27.28       27.22       27.16       27.10       27.02       26.95       26.86       26.77    
        26.66       26.55       26.43       26.30       26.15       25.99       25.80       25.58       25.31       24.94    
   4    27.59       27.59       27.58       27.57       27.55       27.53       27.51       27.48       27.45       27.41    
        27.37       27.33       27.28       27.22       27.16       27.10       27.02       26.95       26.86       26.77    
        26.66       26.55       26.43       26.30       26.15       25.99       25.80       25.58       25.31       24.94    
   5    27.59       27.59       27.58       27.57       27.55       27.53       27.51       27.48       27.45       27.41    
        27.37       27.33       27.28       27.22       27.16       27.10       27.02       26.94       26.86       26.77    
        26.66       26.55       26.43       26.30       26.15       25.99       25.80       25.58       25.31       24.94    
   6    27.59       27.59       27.58       27.57       27.55       27.53       27.51       27.48       27.45       27.41    
        27.37       27.33       27.28       27.22       27.16       27.10       27.02       26.94       26.86       26.77    
        26.66       26.55       26.43       26.30       26.15       25.99       25.80       25.58       25.31       24.94    
   7    27.59       27.59       27.58       27.57       27.55       27.53       27.51       27.48       27.45       27.41    
        27.37       27.33       27.28       27.22       27.16       27.10       27.02       26.94       26.86       26.77    
        26.66       26.55       26.43       26.30       26.15       25.99       25.80       25.58       25.31       24.94    
   8    27.59       27.59       27.58       27.57       27.55       27.53       27.51       27.48       27.45       27.41    
        27.37       27.33       27.28       27.22       27.16       27.10       27.02       26.94       26.86       26.77    
        26.66       26.55       26.43       26.30       26.15       25.99       25.80       25.58       25.31       24.94    
   9    27.59       27.59       27.58       27.57       27.55       27.53       27.51       27.48       27.45       27.41    
        27.37       27.33       27.28       27.22       27.16       27.10       27.02       26.95       26.86       26.77    
        26.66       26.55       26.43       26.30       26.15       25.99       25.80       25.58       25.31       24.94    
  10    27.59       27.59       27.58       27.57       27.55       27.53       27.51       27.48       27.45       27.41    
        27.37       27.33       27.28       27.22       27.16       27.10       27.02       26.95       26.86       26.77    
        26.66       26.55       26.43       26.30       26.15       25.99       25.80       25.58       25.31       24.94    
  11    27.59       27.59       27.58       27.57       27.55       27.53       27.51       27.48       27.45       27.41    
        27.37       27.33       27.28       27.22       27.16       27.10       27.02       26.95       26.86       26.77    
        26.66       26.55       26.43       26.30       26.15       25.99       25.80       25.58       25.31       24.94    
  12    27.59       27.59       27.58       27.57       27.55       27.53       27.51       27.48       27.45       27.41    
        27.37       27.33       27.28       27.22       27.16       27.10       27.02       26.95       26.86       26.77    
        26.66       26.55       26.43       26.30       26.15       25.99       25.80       25.58       25.31       24.94    
  13    27.59       27.59       27.58       27.57       27.55       27.53       27.51       27.48       27.45       27.41    
        27.37       27.33       27.28       27.22       27.16       27.10       27.02       26.95       26.86       26.77    
        26.66       26.55       26.43       26.30       26.15       25.99       25.80       25.58       25.31       24.94    
  14    27.59       27.59       27.58       27.57       27.55       27.53       27.51       27.48       27.45       27.41    
        27.37       27.33       27.28       27.22       27.16       27.10       27.02       26.95       26.86       26.77    
        26.66       26.55       26.43       26.30       26.15       25.99       25.80       25.58       25.31       24.94    
  15    27.59       27.59       27.58       27.57       27.55       27.53       27.51       27.48       27.45       27.41    
        27.37       27.33       27.28       27.22       27.16       27.10       27.02       26.95       26.86       26.77    
        26.66       26.55       26.43       26.30       26.15       25.99       25.80       25.58       25.31       24.94    
  16    27.59       27.59       27.58       27.57       27.55       27.53       27.51       27.48       27.45       27.41    
        27.37       27.33       27.28       27.22       27.16       27.10       27.02       26.95       26.86       26.77    
        26.66       26.55       26.43       26.30       26.15       25.99       25.80       25.58       25.31       24.94    
  17    27.59       27.59       27.58       27.57       27.55       27.53       27.51       27.48       27.45       27.41    
        27.37       27.33       27.28       27.22       27.16       27.10       27.02       26.95       26.86       26.77    
        26.66       26.55       26.43       26.30       26.15       25.99       25.80       25.58       25.31       24.94    
  18    27.59       27.59       27.58       27.57       27.55       27.53       27.51       27.48       27.45       27.41    
        27.37       27.33       27.28       27.22       27.16       27.10       27.02       26.95       26.86       26.77    
        26.66       26.55       26.43       26.30       26.15       25.99       25.80       25.58       25.31       24.94    
  19    27.59       27.59       27.58       27.57       27.55       27.53       27.51       27.48       27.45       27.41    
        27.37       27.33       27.28       27.22       27.16       27.10       27.02       26.95       26.86       26.77    
        26.66       26.55       26.43       26.30       26.15       25.99       25.80       25.58       25.31       24.94    
  20    27.59       27.59       27.58       27.57       27.55       27.53       27.51       27.48       27.45       27.41    
        27.37       27.33       27.28       27.22       27.16       27.10       27.02       26.95       26.86       26.77    
        26.66       26.55       26.43       26.30       26.15       25.99       25.80       25.58       25.31       24.94    
  21    27.59       27.59       27.58       27.57       27.55       27.53       27.51       27.48       27.45       27.41    
        27.37       27.33       27.28       27.22       27.16       27.10       27.02       26.95       26.86       26.77    
        26.66       26.55       26.43       26.30       26.15       25.99       25.80       25.58       25.31       24.94    
  22    27.59       27.59       27.58       27.57       27.55       27.53       27.51       27.48       27.45       27.41    
        27.37       27.33       27.28       27.22       27.16       27.10       27.02       26.95       26.86       26.77    
        26.66       26.55       26.43       26.30       26.15       25.99       25.80       25.58       25.31       24.94    
  23    27.59       27.59       27.58       27.57       27.55       27.53       27.51       27.48       27.45       27.41    
        27.37       27.33       27.28       27.22       27.16       27.10       27.02       26.94       26.86       26.77    
        26.66       26.55       26.43       26.30       26.15       25.99       25.80       25.58       25.31       24.94    
  24    27.59       27.59       27.58       27.57       27.55       27.53       27.51       27.48       27.45       27.41    
        27.37       27.33       27.28       27.22       27.16       27.10       27.02       26.94       26.86       26.77    
        26.66       26.55       26.43       26.30       26.15       25.99       25.80       25.58       25.31       24.94    
  25    27.59       27.59       27.58       27.57       27.55       27.53       27.51       27.48       27.45       27.41    
        27.37       27.33       27.28       27.22       27.16       27.10       27.02       26.95       26.86       26.77    
        26.66       26.55       26.43       26.30       26.15       25.99       25.80       25.58       25.31       24.94    
  26    27.59       27.59       27.58       27.57       27.55       27.53       27.51       27.48       27.45       27.41    
        27.37       27.33       27.28       27.22       27.16       27.10       27.02       26.95       26.86       26.77    
        26.66       26.55       26.43       26.30       26.15       25.99       25.80       25.58       25.31       24.94    
  27    27.59       27.59       27.58       27.57       27.55       27.53       27.51       27.48       27.45       27.41    
        27.37       27.33       27.28       27.22       27.16       27.10       27.02       26.95       26.86       26.77    
        26.66       26.55       26.43       26.30       26.15       25.99       25.80       25.58       25.31       24.94    
  28    27.59       27.59       27.58       27.57       27.55       27.53       27.51       27.48       27.45       27.41    
        27.37       27.33       27.28       27.22       27.16       27.10       27.02       26.95       26.86       26.77    
        26.66       26.55       26.43       26.30       26.15       25.99       25.80       25.58       25.31       24.94    
  29    27.59       27.59       27.58       27.57       27.55       27.53       27.51       27.48       27.45       27.41    
        27.37       27.33       27.28       27.22       27.16       27.10       27.02       26.94       26.86       26.77    
        26.66       26.55       26.43       26.30       26.15       25.99       25.80       25.58       25.31       24.94    
  30    27.59       27.59       27.58       27.57       27.55       27.53       27.51       27.48       27.45       27.41    
        27.37       27.33       27.28       27.22       27.16       27.10       27.02       26.94       26.86       26.77    
        26.66       26.55       26.43       26.30       26.15       25.99       25.80       25.58       25.31       24.94    

 HEAD WILL BE SAVED ON UNIT 1017 AT END OF TIME STEP    1, STRESS PERIOD   21



         TIME SUMMARY AT END OF TIME STEP    1 IN STRESS PERIOD   21
                    SECONDS     MINUTES      HOURS       DAYS        YEARS
                    -----------------------------------------------------------
   TIME STEP LENGTH 2.59200E+05  4320.0      72.000      3.0000     8.21355E-03
 STRESS PERIOD TIME 2.59200E+05  4320.0      72.000      3.0000     8.21355E-03
         TOTAL TIME 4.95936E+07 8.26560E+05  13776.      574.00      1.5715    
 UBDSV1 SAVING           STO-SS ON UNIT   1016 AT TIME STEP      2, STRESS PERIOD     21
 UBDSV1 SAVING           STO-SY ON UNIT   1016 AT TIME STEP      2, STRESS PERIOD     21
 UBDSV1 SAVING     FLOW-JA-FACE ON UNIT   1016 AT TIME STEP      2, STRESS PERIOD     21
 UBDSV06 SAVING              RCH IN MODEL TEST_TRANS       PACKAGE TEST_TRANS      CONNECTED TO MODEL TEST_TRANS       PACKAGE RCHA             ON UNIT   1016 AT TIME STEP      2, STRESS PERIOD     21
 UBDSV06 SAVING              CHD IN MODEL TEST_TRANS       PACKAGE TEST_TRANS      CONNECTED TO MODEL TEST_TRANS       PACKAGE CHD              ON UNIT   1016 AT TIME STEP      2, STRESS PERIOD     21

 HEAD WILL BE SAVED ON UNIT 1017 AT END OF TIME STEP    2, STRESS PERIOD   21
 UBDSV1 SAVING           STO-SS ON UNIT   1016 AT TIME STEP      3, STRESS PERIOD     21
 UBDSV1 SAVING           STO-SY ON UNIT   1016 AT TIME STEP      3, STRESS PERIOD     21
 UBDSV1 SAVING     FLOW-JA-FACE ON UNIT   1016 AT TIME STEP      3, STRESS PERIOD     21
 UBDSV06 SAVING              RCH IN MODEL TEST_TRANS       PACKAGE TEST_TRANS      CONNECTED TO MODEL TEST_TRANS       PACKAGE RCHA             ON UNIT   1016 AT TIME STEP      3, STRESS PERIOD     21
 UBDSV06 SAVING              CHD IN MODEL TEST_TRANS       PACKAGE TEST_TRANS      CONNECTED TO MODEL TEST_TRANS       PACKAGE CHD              ON UNIT   1016 AT TIME STEP      3, STRESS PERIOD     21

 HEAD WILL BE SAVED ON UNIT 1017 AT END OF TIME STEP    3, STRESS PERIOD   21
 UBDSV1 SAVING           STO-SS ON UNIT   1016 AT TIME STEP      4, STRESS PERIOD     21
 UBDSV1 SAVING           STO-SY ON UNIT   1016 AT TIME STEP      4, STRESS PERIOD     21
 UBDSV1 SAVING     FLOW-JA-FACE ON UNIT   1016 AT TIME STEP      4, STRESS PERIOD     21
 UBDSV06 SAVING              RCH IN MODEL TEST_TRANS       PACKAGE TEST_TRANS      CONNECTED TO MODEL TEST_TRANS       PACKAGE RCHA             ON UNIT   1016 AT TIME STEP      4, STRESS PERIOD     21
 UBDSV06 SAVING              CHD IN MODEL TEST_TRANS       PACKAGE TEST_TRANS      CONNECTED TO MODEL TEST_TRANS       PACKAGE CHD              ON UNIT   1016 AT TIME STEP      4, STRESS PERIOD     21

 HEAD WILL BE SAVED ON UNIT 1017 AT END OF TIME STEP    4, STRESS PERIOD   21
 UBDSV1 SAVING           STO-SS ON UNIT   1016 AT TIME STEP      5, STRESS PERIOD     21
 UBDSV1 SAVING           STO-SY ON UNIT   1016 AT TIME STEP      5, STRESS PERIOD     21
 UBDSV1 SAVING     FLOW-JA-FACE ON UNIT   1016 AT TIME STEP      5, STRESS PERIOD     21
 UBDSV06 SAVING              RCH IN MODEL TEST_TRANS       PACKAGE TEST_TRANS      CONNECTED TO MODEL TEST_TRANS       PACKAGE RCHA             ON UNIT   1016 AT TIME STEP      5, STRESS PERIOD     21
 UBDSV06 SAVING              CHD IN MODEL TEST_TRANS       PACKAGE TEST_TRANS      CONNECTED TO MODEL TEST_TRANS       PACKAGE CHD              ON UNIT   1016 AT TIME STEP      5, STRESS PERIOD     21

 HEAD WILL BE SAVED ON UNIT 1017 AT END OF TIME STEP    5, STRESS PERIOD   21
 UBDSV1 SAVING           STO-SS ON UNIT   1016 AT TIME STEP      6, STRESS PERIOD     21
 UBDSV1 SAVING           STO-SY ON UNIT   1016 AT TIME STEP      6, STRESS PERIOD     21
 UBDSV1 SAVING     FLOW-JA-FACE ON UNIT   1016 AT TIME STEP      6, STRESS PERIOD     21
 UBDSV06 SAVING              RCH IN MODEL TEST_TRANS       PACKAGE TEST_TRANS      CONNECTED TO MODEL TEST_TRANS       PACKAGE RCHA             ON UNIT   1016 AT TIME STEP      6, STRESS PERIOD     21
 UBDSV06 SAVING              CHD IN MODEL TEST_TRANS       PACKAGE TEST_TRANS      CONNECTED TO MODEL TEST_TRANS       PACKAGE CHD              ON UNIT   1016 AT TIME STEP      6, STRESS PERIOD     21

 HEAD WILL BE SAVED ON UNIT 1017 AT END OF TIME STEP    6, STRESS PERIOD   21
 UBDSV1 SAVING           STO-SS ON UNIT   1016 AT TIME STEP      7, STRESS PERIOD     21
 UBDSV1 SAVING           STO-SY ON UNIT   1016 AT TIME STEP      7, STRESS PERIOD     21
 UBDSV1 SAVING     FLOW-JA-FACE ON UNIT   1016 AT TIME STEP      7, STRESS PERIOD     21
 UBDSV06 SAVING              RCH IN MODEL TEST_TRANS       PACKAGE TEST_TRANS      CONNECTED TO MODEL TEST_TRANS       PACKAGE RCHA             ON UNIT   1016 AT TIME STEP      7, STRESS PERIOD     21
 UBDSV06 SAVING              CHD IN MODEL TEST_TRANS       PACKAGE TEST_TRANS      CONNECTED TO MODEL TEST_TRANS       PACKAGE CHD              ON UNIT   1016 AT TIME STEP      7, STRESS PERIOD     21

 HEAD WILL BE SAVED ON UNIT 1017 AT END OF TIME STEP    7, STRESS PERIOD   21
 UBDSV1 SAVING           STO-SS ON UNIT   1016 AT TIME STEP      8, STRESS PERIOD     21
 UBDSV1 SAVING           STO-SY ON UNIT   1016 AT TIME STEP      8, STRESS PERIOD     21
 UBDSV1 SAVING     FLOW-JA-FACE ON UNIT   1016 AT TIME STEP      8, STRESS PERIOD     21
 UBDSV06 SAVING              RCH IN MODEL TEST_TRANS       PACKAGE TEST_TRANS      CONNECTED TO MODEL TEST_TRANS       PACKAGE RCHA             ON UNIT   1016 AT TIME STEP      8, STRESS PERIOD     21
 UBDSV06 SAVING              CHD IN MODEL TEST_TRANS       PACKAGE TEST_TRANS      CONNECTED TO MODEL TEST_TRANS       PACKAGE CHD              ON UNIT   1016 AT TIME STEP      8, STRESS PERIOD     21

 HEAD WILL BE SAVED ON UNIT 1017 AT END OF TIME STEP    8, STRESS PERIOD   21
 UBDSV1 SAVING           STO-SS ON UNIT   1016 AT TIME STEP      9, STRESS PERIOD     21
 UBDSV1 SAVING           STO-SY ON UNIT   1016 AT TIME STEP      9, STRESS PERIOD     21
 UBDSV1 SAVING     FLOW-JA-FACE ON UNIT   1016 AT TIME STEP      9, STRESS PERIOD     21
 UBDSV06 SAVING              RCH IN MODEL TEST_TRANS       PACKAGE TEST_TRANS      CONNECTED TO MODEL TEST_TRANS       PACKAGE RCHA             ON UNIT   1016 AT TIME STEP      9, STRESS PERIOD     21
 UBDSV06 SAVING              CHD IN MODEL TEST_TRANS       PACKAGE TEST_TRANS      CONNECTED TO MODEL TEST_TRANS       PACKAGE CHD              ON UNIT   1016 AT TIME STEP      9, STRESS PERIOD     21

 HEAD WILL BE SAVED ON UNIT 1017 AT END OF TIME STEP    9, STRESS PERIOD   21
 UBDSV1 SAVING           STO-SS ON UNIT   1016 AT TIME STEP     10, STRESS PERIOD     21
 UBDSV1 SAVING           STO-SY ON UNIT   1016 AT TIME STEP     10, STRESS PERIOD     21
 UBDSV1 SAVING     FLOW-JA-FACE ON UNIT   1016 AT TIME STEP     10, STRESS PERIOD     21
 UBDSV06 SAVING              RCH IN MODEL TEST_TRANS       PACKAGE TEST_TRANS      CONNECTED TO MODEL TEST_TRANS       PACKAGE RCHA             ON UNIT   1016 AT TIME STEP     10, STRESS PERIOD     21
 UBDSV06 SAVING              CHD IN MODEL TEST_TRANS       PACKAGE TEST_TRANS      CONNECTED TO MODEL TEST_TRANS       PACKAGE CHD              ON UNIT   1016 AT TIME STEP     10, STRESS PERIOD     21
1
  HEAD IN LAYER   1 AT END OF TIME STEP  10 IN STRESS PERIOD   21
  ---------------------------------------------------------------------------

            1           2           3           4           5           6           7           8           9          10
           11          12          13          14          15          16          17          18          19          20
           21          22          23          24          25          26          27          28          29          30
 ........................................................................................................................
   1    27.60       27.60       27.59       27.58       27.56       27.54       27.51       27.49       27.45       27.41    
        27.37       27.32       27.27       27.21       27.14       27.07       27.00       26.91       26.82       26.72    
        26.61       26.49       26.36       26.22       26.06       25.89       25.69       25.48       25.23       24.94    
   2    27.60       27.60       27.59       27.58       27.56       27.54       27.51       27.49       27.45       27.41    
        27.37       27.32       27.27       27.21       27.14       27.07       27.00       26.91       26.82       26.72    
        26.61       26.49       26.36       26.22       26.06       25.89       25.69       25.48       25.23       24.94    
   3    27.60       27.60       27.59       27.58       27.56       27.54       27.51       27.49       27.45       27.41    
        27.37       27.32       27.27       27.21       27.14       27.07       27.00       26.91       26.82       26.72    
        26.61       26.49       26.36       26.22       26.06       25.89       25.69       25.48       25.23       24.94    
   4    27.60       27.60       27.59       27.58       27.56       27.54       27.51       27.49       27.45       27.41    
        27.37       27.32       27.27       27.21       27.14       27.07       27.00       26.91       26.82       26.72    
        26.61       26.49       26.36       26.22       26.06       25.89       25.69       25.48       25.23       24.94    
   5    27.60       27.60       27.59       27.58       27.56       27.54       27.51       27.49       27.45       27.41    
        27.37       27.32       27.27       27.21       27.14       27.07       27.00       26.91       26.82       26.72    
        26.61       26.49       26.36       26.22       26.06       25.89       25.69       25.48       25.23       24.94    
   6    27.60       27.60       27.59       27.58       27.56       27.54       27.51       27.49       27.45       27.41    
        27.37       27.32       27.27       27.21       27.14       27.07       27.00       26.91       26.82       26.72    
        26.61       26.49       26.36       26.22       26.06       25.89       25.69       25.48       25.23       24.94    
   7    27.60       27.60       27.59       27.58       27.56       27.54       27.51       27.49       27.45       27.41    
        27.37       27.32       27.27       27.21       27.14       27.07       27.00       26.91       26.82       26.72    
        26.61       26.49       26.36       26.22       26.06       25.89       25.69       25.48       25.23       24.94    
   8    27.60       27.60       27.59       27.58       27.56       27.54       27.51       27.49       27.45       27.41    
        27.37       27.32       27.27       27.21       27.14       27.07       27.00       26.91       26.82       26.72    
        26.61       26.49       26.36       26.22       26.06       25.89       25.69       25.48       25.23       24.94    
   9    27.60       27.60       27.59       27.58       27.56       27.54       27.51       27.49       27.45       27.41    
        27.37       27.32       27.27       27.21       27.14       27.07       27.00       26.91       26.82       26.72    
        26.61       26.49       26.36       26.22       26.06       25.89       25.69       25.48       25.23       24.94    
  10    27.60       27.60       27.59       27.58       27.56       27.54       27.51       27.49       27.45       27.41    
        27.37       27.32       27.27       27.21       27.14       27.07       27.00       26.91       26.82       26.72    
        26.61       26.49       26.36       26.22       26.06       25.89       25.69       25.48       25.23       24.94    
  11    27.60       27.60       27.59       27.58       27.56       27.54       27.51       27.49       27.45       27.41    
        27.37       27.32       27.27       27.21       27.14       27.07       27.00       26.91       26.82       26.72    
        26.61       26.49       26.36       26.22       26.06       25.89       25.69       25.48       25.23       24.94    
  12    27.60       27.60       27.59       27.58       27.56       27.54       27.51       27.49       27.45       27.41    
        27.37       27.32       27.27       27.21       27.14       27.07       27.00       26.91       26.82       26.72    
        26.61       26.49       26.36       26.22       26.06       25.89       25.69       25.48       25.23       24.94    
  13    27.60       27.60       27.59       27.58       27.56       27.54       27.51       27.49       27.45       27.41    
        27.37       27.32       27.27       27.21       27.14       27.07       27.00       26.91       26.82       26.72    
        26.61       26.49       26.36       26.22       26.06       25.89       25.69       25.48       25.23       24.94    
  14    27.60       27.60       27.59       27.58       27.56       27.54       27.51       27.49       27.45       27.41    
        27.37       27.32       27.27       27.21       27.14       27.07       27.00       26.91       26.82       26.72    
        26.61       26.49       26.36       26.22       26.06       25.89       25.69       25.48       25.23       24.94    
  15    27.60       27.60       27.59       27.58       27.56       27.54       27.51       27.49       27.45       27.41    
        27.37       27.32       27.27       27.21       27.14       27.07       27.00       26.91       26.82       26.72    
        26.61       26.49       26.36       26.22       26.06       25.89       25.69       25.48       25.23       24.94    
  16    27.60       27.60       27.59       27.58       27.56       27.54       27.51       27.49       27.45       27.41    
        27.37       27.32       27.27       27.21       27.14       27.07       27.00       26.91       26.82       26.72    
        26.61       26.49       26.36       26.22       26.06       25.89       25.69       25.48       25.23       24.94    
  17    27.60       27.60       27.59       27.58       27.56       27.54       27.51       27.49       27.45       27.41    
        27.37       27.32       27.27       27.21       27.14       27.07       27.00       26.91       26.82       26.72    
        26.61       26.49       26.36       26.22       26.06       25.89       25.69       25.48       25.23       24.94    
  18    27.60       27.60       27.59       27.58       27.56       27.54       27.51       27.49       27.45       27.41    
        27.37       27.32       27.27       27.21       27.14       27.07       27.00       26.91       26.82       26.72    
        26.61       26.49       26.36       26.22       26.06       25.89       25.69       25.48       25.23       24.94    
  19    27.60       27.60       27.59       27.58       27.56       27.54       27.51       27.49       27.45       27.41    
        27.37       27.32       27.27       27.21       27.14       27.07       27.00       26.91       26.82       26.72    
        26.61       26.49       26.36       26.22       26.06       25.89       25.69       25.48       25.23       24.94    
  20    27.60       27.60       27.59       27.58       27.56       27.54       27.51       27.49       27.45       27.41    
        27.37       27.32       27.27       27.21       27.14       27.07       27.00       26.91       26.82       26.72    
        26.61       26.49       26.36       26.22       26.06       25.89       25.69       25.48       25.23       24.94    
  21    27.60       27.60       27.59       27.58       27.56       27.54       27.51       27.49       27.45       27.41    
        27.37       27.32       27.27       27.21       27.14       27.07       27.00       26.91       26.82       26.72    
        26.61       26.49       26.36       26.22       26.06       25.89       25.69       25.48       25.23       24.94    
  22    27.60       27.60       27.59       27.58       27.56       27.54       27.51       27.49       27.45       27.41    
        27.37       27.32       27.27       27.21       27.14       27.07       27.00       26.91       26.82       26.72    
        26.61       26.49       26.36       26.22       26.06       25.89       25.69       25.48       25.23       24.94    
  23    27.60       27.60       27.59       27.58       27.56       27.54       27.51       27.49       27.45       27.41    
        27.37       27.32       27.27       27.21       27.14       27.07       27.00       26.91       26.82       26.72    
        26.61       26.49       26.36       26.22       26.06       25.89       25.69       25.48       25.23       24.94    
  24    27.60       27.60       27.59       27.58       27.56       27.54       27.51       27.49       27.45       27.41    
        27.37       27.32       27.27       27.21       27.14       27.07       27.00       26.91       26.82       26.72    
        26.61       26.49       26.36       26.22       26.06       25.89       25.69       25.48       25.23       24.94    
  25    27.60       27.60       27.59       27.58       27.56       27.54       27.51       27.49       27.45       27.41    
        27.37       27.32       27.27       27.21       27.14       27.07       27.00       26.91       26.82       26.72    
        26.61       26.49       26.36       26.22       26.06       25.89       25.69       25.48       25.23       24.94    
  26    27.60       27.60       27.59       27.58       27.56       27.54       27.51       27.49       27.45       27.41    
        27.37       27.32       27.27       27.21       27.14       27.07       27.00       26.91       26.82       26.72    
        26.61       26.49       26.36       26.22       26.06       25.89       25.69       25.48       25.23       24.94    
  27    27.60       27.60       27.59       27.58       27.56       27.54       27.51       27.49       27.45       27.41    
        27.37       27.32       27.27       27.21       27.14       27.07       27.00       26.91       26.82       26.72    
        26.61       26.49       26.36       26.22       26.06       25.89       25.69       25.48       25.23       24.94    
  28    27.60       27.60       27.59       27.58       27.56       27.54       27.51       27.49       27.45       27.41    
        27.37       27.32       27.27       27.21       27.14       27.07       27.00       26.91       26.82       26.72    
        26.61       26.49       26.36       26.22       26.06       25.89       25.69       25.48       25.23       24.94    
  29    27.60       27.60       27.59       27.58       27.56       27.54       27.51       27.49       27.45       27.41    
        27.37       27.32       27.27       27.21       27.14       27.07       27.00       26.91       26.82       26.72    
        26.61       26.49       26.36       26.22       26.06       25.89       25.69       25.48       25.23       24.94    
  30    27.60       27.60       27.59       27.58       27.56       27.54       27.51       27.49       27.45       27.41    
        27.37       27.32       27.27       27.21       27.14       27.07       27.00       26.91       26.82       26.72    
        26.61       26.49       26.36       26.22       26.06       25.89       25.69       25.48       25.23       24.94    

 HEAD WILL BE SAVED ON UNIT 1017 AT END OF TIME STEP   10, STRESS PERIOD   21


  VOLUME BUDGET FOR ENTIRE MODEL AT END OF TIME STEP   10, STRESS PERIOD  21
  ---------------------------------------------------------------------------------------------------

     CUMULATIVE VOLUME      L**3       RATES FOR THIS TIME STEP      L**3/T          PACKAGE NAME    
     ------------------                 ------------------------                     ----------------

           IN:                                      IN:
           ---                                      ---
              STO-SS =          40.2211                STO-SS =       1.9315E-02     STORAGE         
              STO-SY =       25823.5397                STO-SY =          12.8670     STORAGE         
                 RCH =       93197.3067                   RCH =         143.0141     RCHA            
                 CHD =        2273.1987                   CHD =           0.0000     CHD             

            TOTAL IN =      121334.2663              TOTAL IN =         155.9004

          OUT:                                     OUT:
          ----                                     ----
              STO-SS =          25.6207                STO-SS =       6.9060E-04     STORAGE         
              STO-SY =       16794.8964                STO-SY =           0.4293     STORAGE         
                 RCH =           0.0000                   RCH =           0.0000     RCHA            
                 CHD =      104513.0793                   CHD =         155.4677     CHD             

           TOTAL OUT =      121333.5964             TOTAL OUT =         155.8978

            IN - OUT =           0.6699              IN - OUT =       2.6260E-03

 PERCENT DISCREPANCY =           0.00     PERCENT DISCREPANCY =           0.00




         TIME SUMMARY AT END OF TIME STEP   10 IN STRESS PERIOD   21
                    SECONDS     MINUTES      HOURS       DAYS        YEARS
                    -----------------------------------------------------------
   TIME STEP LENGTH 2.59200E+05  4320.0      72.000      3.0000     8.21355E-03
 STRESS PERIOD TIME 2.59200E+06  43200.      720.00      30.000     8.21355E-02
         TOTAL TIME 5.19264E+07 8.65440E+05  14424.      601.00      1.6454    

 OUTPUT CONTROL FOR STRESS PERIOD 22 IS REPEATED USING SETTINGS FROM A PREVIOUS STRESS PERIOD.


 STRESS PERIOD 22 IS TRANSIENT


                 RECHARGE =  0.2191780E-02
 UBDSV1 SAVING           STO-SS ON UNIT   1016 AT TIME STEP      1, STRESS PERIOD     22
 UBDSV1 SAVING           STO-SY ON UNIT   1016 AT TIME STEP      1, STRESS PERIOD     22
 UBDSV1 SAVING     FLOW-JA-FACE ON UNIT   1016 AT TIME STEP      1, STRESS PERIOD     22
 UBDSV06 SAVING              RCH IN MODEL TEST_TRANS       PACKAGE TEST_TRANS      CONNECTED TO MODEL TEST_TRANS       PACKAGE RCHA             ON UNIT   1016 AT TIME STEP      1, STRESS PERIOD     22
 UBDSV06 SAVING              CHD IN MODEL TEST_TRANS       PACKAGE TEST_TRANS      CONNECTED TO MODEL TEST_TRANS       PACKAGE CHD              ON UNIT   1016 AT TIME STEP      1, STRESS PERIOD     22
1
  HEAD IN LAYER   1 AT END OF TIME STEP   1 IN STRESS PERIOD   22
  ---------------------------------------------------------------------------

            1           2           3           4           5           6           7           8           9          10
           11          12          13          14          15          16          17          18          19          20
           21          22          23          24          25          26          27          28          29          30
 ........................................................................................................................
   1    27.61       27.61       27.60       27.58       27.57       27.55       27.52       27.49       27.46       27.42    
        27.38       27.33       27.27       27.22       27.15       27.08       27.00       26.92       26.82       26.72    
        26.61       26.49       26.36       26.21       26.04       25.85       25.63       25.35       24.98       24.34    
   2    27.61       27.61       27.60       27.58       27.57       27.55       27.52       27.49       27.46       27.42    
        27.38       27.33       27.27       27.22       27.15       27.08       27.00       26.92       26.82       26.72    
        26.61       26.49       26.36       26.21       26.04       25.85       25.63       25.35       24.98       24.34    
   3    27.61       27.61       27.60       27.58       27.57       27.55       27.52       27.49       27.46       27.42    
        27.38       27.33       27.27       27.22       27.15       27.08       27.00       26.92       26.82       26.72    
        26.61       26.49       26.36       26.21       26.04       25.85       25.63       25.35       24.98       24.34    
   4    27.61       27.61       27.60       27.58       27.57       27.55       27.52       27.49       27.46       27.42    
        27.38       27.33       27.27       27.22       27.15       27.08       27.00       26.92       26.82       26.72    
        26.61       26.49       26.36       26.21       26.04       25.85       25.63       25.35       24.98       24.34    
   5    27.61       27.61       27.60       27.58       27.57       27.55       27.52       27.49       27.46       27.42    
        27.38       27.33       27.27       27.22       27.15       27.08       27.00       26.92       26.82       26.72    
        26.61       26.49       26.36       26.21       26.04       25.85       25.63       25.35       24.98       24.34    
   6    27.61       27.61       27.60       27.58       27.57       27.55       27.52       27.49       27.46       27.42    
        27.38       27.33       27.27       27.22       27.15       27.08       27.00       26.92       26.82       26.72    
        26.61       26.49       26.36       26.21       26.04       25.85       25.63       25.35       24.98       24.34    
   7    27.61       27.61       27.60       27.58       27.57       27.55       27.52       27.49       27.46       27.42    
        27.38       27.33       27.27       27.22       27.15       27.08       27.00       26.92       26.82       26.72    
        26.61       26.49       26.36       26.21       26.04       25.85       25.63       25.35       24.98       24.34    
   8    27.61       27.61       27.60       27.58       27.57       27.55       27.52       27.49       27.46       27.42    
        27.38       27.33       27.27       27.22       27.15       27.08       27.00       26.92       26.82       26.72    
        26.61       26.49       26.36       26.21       26.04       25.85       25.63       25.35       24.98       24.34    
   9    27.61       27.61       27.60       27.58       27.57       27.55       27.52       27.49       27.46       27.42    
        27.38       27.33       27.27       27.22       27.15       27.08       27.00       26.92       26.82       26.72    
        26.61       26.49       26.36       26.21       26.04       25.85       25.63       25.35       24.98       24.34    
  10    27.61       27.61       27.60       27.58       27.57       27.55       27.52       27.49       27.46       27.42    
        27.38       27.33       27.27       27.22       27.15       27.08       27.00       26.92       26.82       26.72    
        26.61       26.49       26.36       26.21       26.04       25.85       25.63       25.35       24.98       24.34    
  11    27.61       27.61       27.60       27.58       27.57       27.55       27.52       27.49       27.46       27.42    
        27.38       27.33       27.27       27.22       27.15       27.08       27.00       26.92       26.82       26.72    
        26.61       26.49       26.36       26.21       26.04       25.85       25.63       25.35       24.98       24.34    
  12    27.61       27.61       27.60       27.58       27.57       27.55       27.52       27.49       27.46       27.42    
        27.38       27.33       27.27       27.22       27.15       27.08       27.00       26.92       26.82       26.72    
        26.61       26.49       26.36       26.21       26.04       25.85       25.63       25.35       24.98       24.34    
  13    27.61       27.61       27.60       27.58       27.57       27.55       27.52       27.49       27.46       27.42    
        27.38       27.33       27.27       27.22       27.15       27.08       27.00       26.92       26.82       26.72    
        26.61       26.49       26.36       26.21       26.04       25.85       25.63       25.35       24.98       24.34    
  14    27.61       27.61       27.60       27.58       27.57       27.55       27.52       27.49       27.46       27.42    
        27.38       27.33       27.27       27.22       27.15       27.08       27.00       26.92       26.82       26.72    
        26.61       26.49       26.36       26.21       26.04       25.85       25.63       25.35       24.98       24.34    
  15    27.61       27.61       27.60       27.58       27.57       27.55       27.52       27.49       27.46       27.42    
        27.38       27.33       27.27       27.22       27.15       27.08       27.00       26.92       26.82       26.72    
        26.61       26.49       26.36       26.21       26.04       25.85       25.63       25.35       24.98       24.34    
  16    27.61       27.61       27.60       27.58       27.57       27.55       27.52       27.49       27.46       27.42    
        27.38       27.33       27.27       27.22       27.15       27.08       27.00       26.92       26.82       26.72    
        26.61       26.49       26.36       26.21       26.04       25.85       25.63       25.35       24.98       24.34    
  17    27.61       27.61       27.60       27.58       27.57       27.55       27.52       27.49       27.46       27.42    
        27.38       27.33       27.27       27.22       27.15       27.08       27.00       26.92       26.82       26.72    
        26.61       26.49       26.36       26.21       26.04       25.85       25.63       25.35       24.98       24.34    
  18    27.61       27.61       27.60       27.58       27.57       27.55       27.52       27.49       27.46       27.42    
        27.38       27.33       27.27       27.22       27.15       27.08       27.00       26.92       26.82       26.72    
        26.61       26.49       26.36       26.21       26.04       25.85       25.63       25.35       24.98       24.34    
  19    27.61       27.61       27.60       27.58       27.57       27.55       27.52       27.49       27.46       27.42    
        27.38       27.33       27.27       27.22       27.15       27.08       27.00       26.92       26.82       26.72    
        26.61       26.49       26.36       26.21       26.04       25.85       25.63       25.35       24.98       24.34    
  20    27.61       27.61       27.60       27.58       27.57       27.55       27.52       27.49       27.46       27.42    
        27.38       27.33       27.27       27.22       27.15       27.08       27.00       26.92       26.82       26.72    
        26.61       26.49       26.36       26.21       26.04       25.85       25.63       25.35       24.98       24.34    
  21    27.61       27.61       27.60       27.58       27.57       27.55       27.52       27.49       27.46       27.42    
        27.38       27.33       27.27       27.22       27.15       27.08       27.00       26.92       26.82       26.72    
        26.61       26.49       26.36       26.21       26.04       25.85       25.63       25.35       24.98       24.34    
  22    27.61       27.61       27.60       27.58       27.57       27.55       27.52       27.49       27.46       27.42    
        27.38       27.33       27.27       27.22       27.15       27.08       27.00       26.92       26.82       26.72    
        26.61       26.49       26.36       26.21       26.04       25.85       25.63       25.35       24.98       24.34    
  23    27.61       27.61       27.60       27.58       27.57       27.55       27.52       27.49       27.46       27.42    
        27.38       27.33       27.27       27.22       27.15       27.08       27.00       26.92       26.82       26.72    
        26.61       26.49       26.36       26.21       26.04       25.85       25.63       25.35       24.98       24.34    
  24    27.61       27.61       27.60       27.58       27.57       27.55       27.52       27.49       27.46       27.42    
        27.38       27.33       27.27       27.22       27.15       27.08       27.00       26.92       26.82       26.72    
        26.61       26.49       26.36       26.21       26.04       25.85       25.63       25.35       24.98       24.34    
  25    27.61       27.61       27.60       27.58       27.57       27.55       27.52       27.49       27.46       27.42    
        27.38       27.33       27.27       27.22       27.15       27.08       27.00       26.92       26.82       26.72    
        26.61       26.49       26.36       26.21       26.04       25.85       25.63       25.35       24.98       24.34    
  26    27.61       27.61       27.60       27.58       27.57       27.55       27.52       27.49       27.46       27.42    
        27.38       27.33       27.27       27.22       27.15       27.08       27.00       26.92       26.82       26.72    
        26.61       26.49       26.36       26.21       26.04       25.85       25.63       25.35       24.98       24.34    
  27    27.61       27.61       27.60       27.58       27.57       27.55       27.52       27.49       27.46       27.42    
        27.38       27.33       27.27       27.22       27.15       27.08       27.00       26.92       26.82       26.72    
        26.61       26.49       26.36       26.21       26.04       25.85       25.63       25.35       24.98       24.34    
  28    27.61       27.61       27.60       27.58       27.57       27.55       27.52       27.49       27.46       27.42    
        27.38       27.33       27.27       27.22       27.15       27.08       27.00       26.92       26.82       26.72    
        26.61       26.49       26.36       26.21       26.04       25.85       25.63       25.35       24.98       24.34    
  29    27.61       27.61       27.60       27.58       27.57       27.55       27.52       27.49       27.46       27.42    
        27.38       27.33       27.27       27.22       27.15       27.08       27.00       26.92       26.82       26.72    
        26.61       26.49       26.36       26.21       26.04       25.85       25.63       25.35       24.98       24.34    
  30    27.61       27.61       27.60       27.58       27.57       27.55       27.52       27.49       27.46       27.42    
        27.38       27.33       27.27       27.22       27.15       27.08       27.00       26.92       26.82       26.72    
        26.61       26.49       26.36       26.21       26.04       25.85       25.63       25.35       24.98       24.34    

 HEAD WILL BE SAVED ON UNIT 1017 AT END OF TIME STEP    1, STRESS PERIOD   22



         TIME SUMMARY AT END OF TIME STEP    1 IN STRESS PERIOD   22
                    SECONDS     MINUTES      HOURS       DAYS        YEARS
                    -----------------------------------------------------------
   TIME STEP LENGTH 2.59200E+05  4320.0      72.000      3.0000     8.21355E-03
 STRESS PERIOD TIME 2.59200E+05  4320.0      72.000      3.0000     8.21355E-03
         TOTAL TIME 5.21856E+07 8.69760E+05  14496.      604.00      1.6537    
 UBDSV1 SAVING           STO-SS ON UNIT   1016 AT TIME STEP      2, STRESS PERIOD     22
 UBDSV1 SAVING           STO-SY ON UNIT   1016 AT TIME STEP      2, STRESS PERIOD     22
 UBDSV1 SAVING     FLOW-JA-FACE ON UNIT   1016 AT TIME STEP      2, STRESS PERIOD     22
 UBDSV06 SAVING              RCH IN MODEL TEST_TRANS       PACKAGE TEST_TRANS      CONNECTED TO MODEL TEST_TRANS       PACKAGE RCHA             ON UNIT   1016 AT TIME STEP      2, STRESS PERIOD     22
 UBDSV06 SAVING              CHD IN MODEL TEST_TRANS       PACKAGE TEST_TRANS      CONNECTED TO MODEL TEST_TRANS       PACKAGE CHD              ON UNIT   1016 AT TIME STEP      2, STRESS PERIOD     22

 HEAD WILL BE SAVED ON UNIT 1017 AT END OF TIME STEP    2, STRESS PERIOD   22
 UBDSV1 SAVING           STO-SS ON UNIT   1016 AT TIME STEP      3, STRESS PERIOD     22
 UBDSV1 SAVING           STO-SY ON UNIT   1016 AT TIME STEP      3, STRESS PERIOD     22
 UBDSV1 SAVING     FLOW-JA-FACE ON UNIT   1016 AT TIME STEP      3, STRESS PERIOD     22
 UBDSV06 SAVING              RCH IN MODEL TEST_TRANS       PACKAGE TEST_TRANS      CONNECTED TO MODEL TEST_TRANS       PACKAGE RCHA             ON UNIT   1016 AT TIME STEP      3, STRESS PERIOD     22
 UBDSV06 SAVING              CHD IN MODEL TEST_TRANS       PACKAGE TEST_TRANS      CONNECTED TO MODEL TEST_TRANS       PACKAGE CHD              ON UNIT   1016 AT TIME STEP      3, STRESS PERIOD     22

 HEAD WILL BE SAVED ON UNIT 1017 AT END OF TIME STEP    3, STRESS PERIOD   22
 UBDSV1 SAVING           STO-SS ON UNIT   1016 AT TIME STEP      4, STRESS PERIOD     22
 UBDSV1 SAVING           STO-SY ON UNIT   1016 AT TIME STEP      4, STRESS PERIOD     22
 UBDSV1 SAVING     FLOW-JA-FACE ON UNIT   1016 AT TIME STEP      4, STRESS PERIOD     22
 UBDSV06 SAVING              RCH IN MODEL TEST_TRANS       PACKAGE TEST_TRANS      CONNECTED TO MODEL TEST_TRANS       PACKAGE RCHA             ON UNIT   1016 AT TIME STEP      4, STRESS PERIOD     22
 UBDSV06 SAVING              CHD IN MODEL TEST_TRANS       PACKAGE TEST_TRANS      CONNECTED TO MODEL TEST_TRANS       PACKAGE CHD              ON UNIT   1016 AT TIME STEP      4, STRESS PERIOD     22

 HEAD WILL BE SAVED ON UNIT 1017 AT END OF TIME STEP    4, STRESS PERIOD   22
 UBDSV1 SAVING           STO-SS ON UNIT   1016 AT TIME STEP      5, STRESS PERIOD     22
 UBDSV1 SAVING           STO-SY ON UNIT   1016 AT TIME STEP      5, STRESS PERIOD     22
 UBDSV1 SAVING     FLOW-JA-FACE ON UNIT   1016 AT TIME STEP      5, STRESS PERIOD     22
 UBDSV06 SAVING              RCH IN MODEL TEST_TRANS       PACKAGE TEST_TRANS      CONNECTED TO MODEL TEST_TRANS       PACKAGE RCHA             ON UNIT   1016 AT TIME STEP      5, STRESS PERIOD     22
 UBDSV06 SAVING              CHD IN MODEL TEST_TRANS       PACKAGE TEST_TRANS      CONNECTED TO MODEL TEST_TRANS       PACKAGE CHD              ON UNIT   1016 AT TIME STEP      5, STRESS PERIOD     22

 HEAD WILL BE SAVED ON UNIT 1017 AT END OF TIME STEP    5, STRESS PERIOD   22
 UBDSV1 SAVING           STO-SS ON UNIT   1016 AT TIME STEP      6, STRESS PERIOD     22
 UBDSV1 SAVING           STO-SY ON UNIT   1016 AT TIME STEP      6, STRESS PERIOD     22
 UBDSV1 SAVING     FLOW-JA-FACE ON UNIT   1016 AT TIME STEP      6, STRESS PERIOD     22
 UBDSV06 SAVING              RCH IN MODEL TEST_TRANS       PACKAGE TEST_TRANS      CONNECTED TO MODEL TEST_TRANS       PACKAGE RCHA             ON UNIT   1016 AT TIME STEP      6, STRESS PERIOD     22
 UBDSV06 SAVING              CHD IN MODEL TEST_TRANS       PACKAGE TEST_TRANS      CONNECTED TO MODEL TEST_TRANS       PACKAGE CHD              ON UNIT   1016 AT TIME STEP      6, STRESS PERIOD     22

 HEAD WILL BE SAVED ON UNIT 1017 AT END OF TIME STEP    6, STRESS PERIOD   22
 UBDSV1 SAVING           STO-SS ON UNIT   1016 AT TIME STEP      7, STRESS PERIOD     22
 UBDSV1 SAVING           STO-SY ON UNIT   1016 AT TIME STEP      7, STRESS PERIOD     22
 UBDSV1 SAVING     FLOW-JA-FACE ON UNIT   1016 AT TIME STEP      7, STRESS PERIOD     22
 UBDSV06 SAVING              RCH IN MODEL TEST_TRANS       PACKAGE TEST_TRANS      CONNECTED TO MODEL TEST_TRANS       PACKAGE RCHA             ON UNIT   1016 AT TIME STEP      7, STRESS PERIOD     22
 UBDSV06 SAVING              CHD IN MODEL TEST_TRANS       PACKAGE TEST_TRANS      CONNECTED TO MODEL TEST_TRANS       PACKAGE CHD              ON UNIT   1016 AT TIME STEP      7, STRESS PERIOD     22

 HEAD WILL BE SAVED ON UNIT 1017 AT END OF TIME STEP    7, STRESS PERIOD   22
 UBDSV1 SAVING           STO-SS ON UNIT   1016 AT TIME STEP      8, STRESS PERIOD     22
 UBDSV1 SAVING           STO-SY ON UNIT   1016 AT TIME STEP      8, STRESS PERIOD     22
 UBDSV1 SAVING     FLOW-JA-FACE ON UNIT   1016 AT TIME STEP      8, STRESS PERIOD     22
 UBDSV06 SAVING              RCH IN MODEL TEST_TRANS       PACKAGE TEST_TRANS      CONNECTED TO MODEL TEST_TRANS       PACKAGE RCHA             ON UNIT   1016 AT TIME STEP      8, STRESS PERIOD     22
 UBDSV06 SAVING              CHD IN MODEL TEST_TRANS       PACKAGE TEST_TRANS      CONNECTED TO MODEL TEST_TRANS       PACKAGE CHD              ON UNIT   1016 AT TIME STEP      8, STRESS PERIOD     22

 HEAD WILL BE SAVED ON UNIT 1017 AT END OF TIME STEP    8, STRESS PERIOD   22
 UBDSV1 SAVING           STO-SS ON UNIT   1016 AT TIME STEP      9, STRESS PERIOD     22
 UBDSV1 SAVING           STO-SY ON UNIT   1016 AT TIME STEP      9, STRESS PERIOD     22
 UBDSV1 SAVING     FLOW-JA-FACE ON UNIT   1016 AT TIME STEP      9, STRESS PERIOD     22
 UBDSV06 SAVING              RCH IN MODEL TEST_TRANS       PACKAGE TEST_TRANS      CONNECTED TO MODEL TEST_TRANS       PACKAGE RCHA             ON UNIT   1016 AT TIME STEP      9, STRESS PERIOD     22
 UBDSV06 SAVING              CHD IN MODEL TEST_TRANS       PACKAGE TEST_TRANS      CONNECTED TO MODEL TEST_TRANS       PACKAGE CHD              ON UNIT   1016 AT TIME STEP      9, STRESS PERIOD     22

 HEAD WILL BE SAVED ON UNIT 1017 AT END OF TIME STEP    9, STRESS PERIOD   22
 UBDSV1 SAVING           STO-SS ON UNIT   1016 AT TIME STEP     10, STRESS PERIOD     22
 UBDSV1 SAVING           STO-SY ON UNIT   1016 AT TIME STEP     10, STRESS PERIOD     22
 UBDSV1 SAVING     FLOW-JA-FACE ON UNIT   1016 AT TIME STEP     10, STRESS PERIOD     22
 UBDSV06 SAVING              RCH IN MODEL TEST_TRANS       PACKAGE TEST_TRANS      CONNECTED TO MODEL TEST_TRANS       PACKAGE RCHA             ON UNIT   1016 AT TIME STEP     10, STRESS PERIOD     22
 UBDSV06 SAVING              CHD IN MODEL TEST_TRANS       PACKAGE TEST_TRANS      CONNECTED TO MODEL TEST_TRANS       PACKAGE CHD              ON UNIT   1016 AT TIME STEP     10, STRESS PERIOD     22
1
  HEAD IN LAYER   1 AT END OF TIME STEP  10 IN STRESS PERIOD   22
  ---------------------------------------------------------------------------

            1           2           3           4           5           6           7           8           9          10
           11          12          13          14          15          16          17          18          19          20
           21          22          23          24          25          26          27          28          29          30
 ........................................................................................................................
   1    27.68       27.67       27.66       27.65       27.63       27.61       27.58       27.55       27.51       27.47    
        27.42       27.37       27.31       27.25       27.17       27.09       27.01       26.91       26.81       26.69    
        26.57       26.43       26.27       26.10       25.91       25.69       25.45       25.16       24.80       24.34    
   2    27.68       27.67       27.66       27.65       27.63       27.61       27.58       27.55       27.51       27.47    
        27.42       27.37       27.31       27.25       27.17       27.09       27.01       26.91       26.81       26.69    
        26.57       26.43       26.27       26.10       25.91       25.69       25.45       25.16       24.80       24.34    
   3    27.68       27.67       27.66       27.65       27.63       27.61       27.58       27.55       27.51       27.47    
        27.42       27.37       27.31       27.25       27.17       27.09       27.01       26.91       26.81       26.69    
        26.57       26.43       26.27       26.10       25.91       25.69       25.45       25.16       24.80       24.34    
   4    27.68       27.67       27.66       27.65       27.63       27.61       27.58       27.55       27.51       27.47    
        27.42       27.37       27.31       27.25       27.17       27.09       27.01       26.91       26.81       26.69    
        26.57       26.43       26.27       26.10       25.91       25.69       25.45       25.16       24.80       24.34    
   5    27.68       27.67       27.66       27.65       27.63       27.61       27.58       27.55       27.51       27.47    
        27.42       27.37       27.31       27.25       27.17       27.09       27.01       26.91       26.81       26.69    
        26.57       26.43       26.27       26.10       25.91       25.69       25.45       25.16       24.80       24.34    
   6    27.68       27.67       27.66       27.65       27.63       27.61       27.58       27.55       27.51       27.47    
        27.42       27.37       27.31       27.25       27.17       27.09       27.01       26.91       26.81       26.69    
        26.57       26.43       26.27       26.10       25.91       25.69       25.45       25.16       24.80       24.34    
   7    27.68       27.67       27.66       27.65       27.63       27.61       27.58       27.55       27.51       27.47    
        27.42       27.37       27.31       27.25       27.17       27.09       27.01       26.91       26.81       26.69    
        26.57       26.43       26.27       26.10       25.91       25.69       25.45       25.16       24.80       24.34    
   8    27.68       27.67       27.66       27.65       27.63       27.61       27.58       27.55       27.51       27.47    
        27.42       27.37       27.31       27.25       27.17       27.09       27.01       26.91       26.81       26.69    
        26.57       26.43       26.27       26.10       25.91       25.69       25.45       25.16       24.80       24.34    
   9    27.68       27.67       27.66       27.65       27.63       27.61       27.58       27.55       27.51       27.47    
        27.42       27.37       27.31       27.25       27.17       27.09       27.01       26.91       26.81       26.69    
        26.57       26.43       26.27       26.10       25.91       25.69       25.45       25.16       24.80       24.34    
  10    27.68       27.67       27.66       27.65       27.63       27.61       27.58       27.55       27.51       27.47    
        27.42       27.37       27.31       27.25       27.17       27.09       27.01       26.91       26.81       26.69    
        26.57       26.43       26.27       26.10       25.91       25.69       25.45       25.16       24.80       24.34    
  11    27.68       27.67       27.66       27.65       27.63       27.61       27.58       27.55       27.51       27.47    
        27.42       27.37       27.31       27.25       27.17       27.09       27.01       26.91       26.81       26.69    
        26.57       26.43       26.27       26.10       25.91       25.69       25.45       25.16       24.80       24.34    
  12    27.68       27.67       27.66       27.65       27.63       27.61       27.58       27.55       27.51       27.47    
        27.42       27.37       27.31       27.25       27.17       27.09       27.01       26.91       26.81       26.69    
        26.57       26.43       26.27       26.10       25.91       25.69       25.45       25.16       24.80       24.34    
  13    27.68       27.67       27.66       27.65       27.63       27.61       27.58       27.55       27.51       27.47    
        27.42       27.37       27.31       27.25       27.17       27.09       27.01       26.91       26.81       26.69    
        26.57       26.43       26.27       26.10       25.91       25.69       25.45       25.16       24.80       24.34    
  14    27.68       27.67       27.66       27.65       27.63       27.61       27.58       27.55       27.51       27.47    
        27.42       27.37       27.31       27.25       27.17       27.09       27.01       26.91       26.81       26.69    
        26.57       26.43       26.27       26.10       25.91       25.69       25.45       25.16       24.80       24.34    
  15    27.68       27.67       27.66       27.65       27.63       27.61       27.58       27.55       27.51       27.47    
        27.42       27.37       27.31       27.25       27.17       27.09       27.01       26.91       26.81       26.69    
        26.57       26.43       26.27       26.10       25.91       25.69       25.45       25.16       24.80       24.34    
  16    27.68       27.67       27.66       27.65       27.63       27.61       27.58       27.55       27.51       27.47    
        27.42       27.37       27.31       27.25       27.17       27.09       27.01       26.91       26.81       26.69    
        26.57       26.43       26.27       26.10       25.91       25.69       25.45       25.16       24.80       24.34    
  17    27.68       27.67       27.66       27.65       27.63       27.61       27.58       27.55       27.51       27.47    
        27.42       27.37       27.31       27.25       27.17       27.09       27.01       26.91       26.81       26.69    
        26.57       26.43       26.27       26.10       25.91       25.69       25.45       25.16       24.80       24.34    
  18    27.68       27.67       27.66       27.65       27.63       27.61       27.58       27.55       27.51       27.47    
        27.42       27.37       27.31       27.25       27.17       27.09       27.01       26.91       26.81       26.69    
        26.57       26.43       26.27       26.10       25.91       25.69       25.45       25.16       24.80       24.34    
  19    27.68       27.67       27.66       27.65       27.63       27.61       27.58       27.55       27.51       27.47    
        27.42       27.37       27.31       27.25       27.17       27.09       27.01       26.91       26.81       26.69    
        26.57       26.43       26.27       26.10       25.91       25.69       25.45       25.16       24.80       24.34    
  20    27.68       27.67       27.66       27.65       27.63       27.61       27.58       27.55       27.51       27.47    
        27.42       27.37       27.31       27.25       27.17       27.09       27.01       26.91       26.81       26.69    
        26.57       26.43       26.27       26.10       25.91       25.69       25.45       25.16       24.80       24.34    
  21    27.68       27.67       27.66       27.65       27.63       27.61       27.58       27.55       27.51       27.47    
        27.42       27.37       27.31       27.25       27.17       27.09       27.01       26.91       26.81       26.69    
        26.57       26.43       26.27       26.10       25.91       25.69       25.45       25.16       24.80       24.34    
  22    27.68       27.67       27.66       27.65       27.63       27.61       27.58       27.55       27.51       27.47    
        27.42       27.37       27.31       27.25       27.17       27.09       27.01       26.91       26.81       26.69    
        26.57       26.43       26.27       26.10       25.91       25.69       25.45       25.16       24.80       24.34    
  23    27.68       27.67       27.66       27.65       27.63       27.61       27.58       27.55       27.51       27.47    
        27.42       27.37       27.31       27.25       27.17       27.09       27.01       26.91       26.81       26.69    
        26.57       26.43       26.27       26.10       25.91       25.69       25.45       25.16       24.80       24.34    
  24    27.68       27.67       27.66       27.65       27.63       27.61       27.58       27.55       27.51       27.47    
        27.42       27.37       27.31       27.25       27.17       27.09       27.01       26.91       26.81       26.69    
        26.57       26.43       26.27       26.10       25.91       25.69       25.45       25.16       24.80       24.34    
  25    27.68       27.67       27.66       27.65       27.63       27.61       27.58       27.55       27.51       27.47    
        27.42       27.37       27.31       27.25       27.17       27.09       27.01       26.91       26.81       26.69    
        26.57       26.43       26.27       26.10       25.91       25.69       25.45       25.16       24.80       24.34    
  26    27.68       27.67       27.66       27.65       27.63       27.61       27.58       27.55       27.51       27.47    
        27.42       27.37       27.31       27.25       27.17       27.09       27.01       26.91       26.81       26.69    
        26.57       26.43       26.27       26.10       25.91       25.69       25.45       25.16       24.80       24.34    
  27    27.68       27.67       27.66       27.65       27.63       27.61       27.58       27.55       27.51       27.47    
        27.42       27.37       27.31       27.25       27.17       27.09       27.01       26.91       26.81       26.69    
        26.57       26.43       26.27       26.10       25.91       25.69       25.45       25.16       24.80       24.34    
  28    27.68       27.67       27.66       27.65       27.63       27.61       27.58       27.55       27.51       27.47    
        27.42       27.37       27.31       27.25       27.17       27.09       27.01       26.91       26.81       26.69    
        26.57       26.43       26.27       26.10       25.91       25.69       25.45       25.16       24.80       24.34    
  29    27.68       27.67       27.66       27.65       27.63       27.61       27.58       27.55       27.51       27.47    
        27.42       27.37       27.31       27.25       27.17       27.09       27.01       26.91       26.81       26.69    
        26.57       26.43       26.27       26.10       25.91       25.69       25.45       25.16       24.80       24.34    
  30    27.68       27.67       27.66       27.65       27.63       27.61       27.58       27.55       27.51       27.47    
        27.42       27.37       27.31       27.25       27.17       27.09       27.01       26.91       26.81       26.69    
        26.57       26.43       26.27       26.10       25.91       25.69       25.45       25.16       24.80       24.34    

 HEAD WILL BE SAVED ON UNIT 1017 AT END OF TIME STEP   10, STRESS PERIOD   22


  VOLUME BUDGET FOR ENTIRE MODEL AT END OF TIME STEP   10, STRESS PERIOD  22
  ---------------------------------------------------------------------------------------------------

     CUMULATIVE VOLUME      L**3       RATES FOR THIS TIME STEP      L**3/T          PACKAGE NAME    
     ------------------                 ------------------------                     ----------------

           IN:                                      IN:
           ---                                      ---
              STO-SS =          41.6680                STO-SS =       1.3934E-02     STORAGE         
              STO-SY =       26848.1313                STO-SY =           9.6283     STORAGE         
                 RCH =       98917.8525                   RCH =         190.6849     RCHA            
                 CHD =        2273.1987                   CHD =           0.0000     CHD             

            TOTAL IN =      128080.8505              TOTAL IN =         200.3271

          OUT:                                     OUT:
          ----                                     ----
              STO-SS =          26.5352                STO-SS =       2.2044E-02     STORAGE         
              STO-SY =       17367.1655                STO-SY =          13.7321     STORAGE         
                 RCH =           0.0000                   RCH =           0.0000     RCHA            
                 CHD =      110686.4513                   CHD =         186.5695     CHD             

           TOTAL OUT =      128080.1519             TOTAL OUT =         200.3236

            IN - OUT =           0.6986              IN - OUT =       3.5163E-03

 PERCENT DISCREPANCY =           0.00     PERCENT DISCREPANCY =           0.00




         TIME SUMMARY AT END OF TIME STEP   10 IN STRESS PERIOD   22
                    SECONDS     MINUTES      HOURS       DAYS        YEARS
                    -----------------------------------------------------------
   TIME STEP LENGTH 2.59200E+05  4320.0      72.000      3.0000     8.21355E-03
 STRESS PERIOD TIME 2.59200E+06  43200.      720.00      30.000     8.21355E-02
         TOTAL TIME 5.45184E+07 9.08640E+05  15144.      631.00      1.7276    

 OUTPUT CONTROL FOR STRESS PERIOD 23 IS REPEATED USING SETTINGS FROM A PREVIOUS STRESS PERIOD.


 STRESS PERIOD 23 IS TRANSIENT


                 RECHARGE =  0.2465750E-02
 UBDSV1 SAVING           STO-SS ON UNIT   1016 AT TIME STEP      1, STRESS PERIOD     23
 UBDSV1 SAVING           STO-SY ON UNIT   1016 AT TIME STEP      1, STRESS PERIOD     23
 UBDSV1 SAVING     FLOW-JA-FACE ON UNIT   1016 AT TIME STEP      1, STRESS PERIOD     23
 UBDSV06 SAVING              RCH IN MODEL TEST_TRANS       PACKAGE TEST_TRANS      CONNECTED TO MODEL TEST_TRANS       PACKAGE RCHA             ON UNIT   1016 AT TIME STEP      1, STRESS PERIOD     23
 UBDSV06 SAVING              CHD IN MODEL TEST_TRANS       PACKAGE TEST_TRANS      CONNECTED TO MODEL TEST_TRANS       PACKAGE CHD              ON UNIT   1016 AT TIME STEP      1, STRESS PERIOD     23
1
  HEAD IN LAYER   1 AT END OF TIME STEP   1 IN STRESS PERIOD   23
  ---------------------------------------------------------------------------

            1           2           3           4           5           6           7           8           9          10
           11          12          13          14          15          16          17          18          19          20
           21          22          23          24          25          26          27          28          29          30
 ........................................................................................................................
   1    27.69       27.68       27.67       27.66       27.64       27.62       27.59       27.56       27.52       27.48    
        27.43       27.38       27.32       27.25       27.18       27.10       27.01       26.92       26.81       26.69    
        26.57       26.43       26.27       26.10       25.91       25.69       25.44       25.14       24.77       24.24    
   2    27.69       27.68       27.67       27.66       27.64       27.62       27.59       27.56       27.52       27.48    
        27.43       27.38       27.32       27.25       27.18       27.10       27.01       26.92       26.81       26.69    
        26.57       26.43       26.27       26.10       25.91       25.69       25.44       25.14       24.77       24.24    
   3    27.69       27.68       27.67       27.66       27.64       27.62       27.59       27.56       27.52       27.48    
        27.43       27.38       27.32       27.25       27.18       27.10       27.01       26.92       26.81       26.69    
        26.57       26.43       26.27       26.10       25.91       25.69       25.44       25.14       24.77       24.24    
   4    27.69       27.68       27.67       27.66       27.64       27.62       27.59       27.56       27.52       27.48    
        27.43       27.38       27.32       27.25       27.18       27.10       27.01       26.92       26.81       26.69    
        26.57       26.43       26.27       26.10       25.91       25.69       25.44       25.14       24.77       24.24    
   5    27.69       27.68       27.67       27.66       27.64       27.62       27.59       27.56       27.52       27.48    
        27.43       27.38       27.32       27.25       27.18       27.10       27.01       26.92       26.81       26.69    
        26.57       26.43       26.27       26.10       25.91       25.69       25.44       25.14       24.77       24.24    
   6    27.69       27.68       27.67       27.66       27.64       27.62       27.59       27.56       27.52       27.48    
        27.43       27.38       27.32       27.25       27.18       27.10       27.01       26.92       26.81       26.69    
        26.57       26.43       26.27       26.10       25.91       25.69       25.44       25.14       24.77       24.24    
   7    27.69       27.68       27.67       27.66       27.64       27.62       27.59       27.56       27.52       27.48    
        27.43       27.38       27.32       27.25       27.18       27.10       27.01       26.92       26.81       26.69    
        26.57       26.43       26.27       26.10       25.91       25.69       25.44       25.14       24.77       24.24    
   8    27.69       27.68       27.67       27.66       27.64       27.62       27.59       27.56       27.52       27.48    
        27.43       27.38       27.32       27.25       27.18       27.10       27.01       26.92       26.81       26.69    
        26.57       26.43       26.27       26.10       25.91       25.69       25.44       25.14       24.77       24.24    
   9    27.69       27.68       27.67       27.66       27.64       27.62       27.59       27.56       27.52       27.48    
        27.43       27.38       27.32       27.25       27.18       27.10       27.01       26.92       26.81       26.69    
        26.57       26.43       26.27       26.10       25.91       25.69       25.44       25.14       24.77       24.24    
  10    27.69       27.68       27.67       27.66       27.64       27.62       27.59       27.56       27.52       27.48    
        27.43       27.38       27.32       27.25       27.18       27.10       27.01       26.92       26.81       26.69    
        26.57       26.43       26.27       26.10       25.91       25.69       25.44       25.14       24.77       24.24    
  11    27.69       27.68       27.67       27.66       27.64       27.62       27.59       27.56       27.52       27.48    
        27.43       27.38       27.32       27.25       27.18       27.10       27.01       26.92       26.81       26.69    
        26.57       26.43       26.27       26.10       25.91       25.69       25.44       25.14       24.77       24.24    
  12    27.69       27.68       27.67       27.66       27.64       27.62       27.59       27.56       27.52       27.48    
        27.43       27.38       27.32       27.25       27.18       27.10       27.01       26.92       26.81       26.69    
        26.57       26.43       26.27       26.10       25.91       25.69       25.44       25.14       24.77       24.24    
  13    27.69       27.68       27.67       27.66       27.64       27.62       27.59       27.56       27.52       27.48    
        27.43       27.38       27.32       27.25       27.18       27.10       27.01       26.92       26.81       26.69    
        26.57       26.43       26.27       26.10       25.91       25.69       25.44       25.14       24.77       24.24    
  14    27.69       27.68       27.67       27.66       27.64       27.62       27.59       27.56       27.52       27.48    
        27.43       27.38       27.32       27.25       27.18       27.10       27.01       26.92       26.81       26.69    
        26.57       26.43       26.27       26.10       25.91       25.69       25.44       25.14       24.77       24.24    
  15    27.69       27.68       27.67       27.66       27.64       27.62       27.59       27.56       27.52       27.48    
        27.43       27.38       27.32       27.25       27.18       27.10       27.01       26.92       26.81       26.69    
        26.57       26.43       26.27       26.10       25.91       25.69       25.44       25.14       24.77       24.24    
  16    27.69       27.68       27.67       27.66       27.64       27.62       27.59       27.56       27.52       27.48    
        27.43       27.38       27.32       27.25       27.18       27.10       27.01       26.92       26.81       26.69    
        26.57       26.43       26.27       26.10       25.91       25.69       25.44       25.14       24.77       24.24    
  17    27.69       27.68       27.67       27.66       27.64       27.62       27.59       27.56       27.52       27.48    
        27.43       27.38       27.32       27.25       27.18       27.10       27.01       26.92       26.81       26.69    
        26.57       26.43       26.27       26.10       25.91       25.69       25.44       25.14       24.77       24.24    
  18    27.69       27.68       27.67       27.66       27.64       27.62       27.59       27.56       27.52       27.48    
        27.43       27.38       27.32       27.25       27.18       27.10       27.01       26.92       26.81       26.69    
        26.57       26.43       26.27       26.10       25.91       25.69       25.44       25.14       24.77       24.24    
  19    27.69       27.68       27.67       27.66       27.64       27.62       27.59       27.56       27.52       27.48    
        27.43       27.38       27.32       27.25       27.18       27.10       27.01       26.92       26.81       26.69    
        26.57       26.43       26.27       26.10       25.91       25.69       25.44       25.14       24.77       24.24    
  20    27.69       27.68       27.67       27.66       27.64       27.62       27.59       27.56       27.52       27.48    
        27.43       27.38       27.32       27.25       27.18       27.10       27.01       26.92       26.81       26.69    
        26.57       26.43       26.27       26.10       25.91       25.69       25.44       25.14       24.77       24.24    
  21    27.69       27.68       27.67       27.66       27.64       27.62       27.59       27.56       27.52       27.48    
        27.43       27.38       27.32       27.25       27.18       27.10       27.01       26.92       26.81       26.69    
        26.57       26.43       26.27       26.10       25.91       25.69       25.44       25.14       24.77       24.24    
  22    27.69       27.68       27.67       27.66       27.64       27.62       27.59       27.56       27.52       27.48    
        27.43       27.38       27.32       27.25       27.18       27.10       27.01       26.92       26.81       26.69    
        26.57       26.43       26.27       26.10       25.91       25.69       25.44       25.14       24.77       24.24    
  23    27.69       27.68       27.67       27.66       27.64       27.62       27.59       27.56       27.52       27.48    
        27.43       27.38       27.32       27.25       27.18       27.10       27.01       26.92       26.81       26.69    
        26.57       26.43       26.27       26.10       25.91       25.69       25.44       25.14       24.77       24.24    
  24    27.69       27.68       27.67       27.66       27.64       27.62       27.59       27.56       27.52       27.48    
        27.43       27.38       27.32       27.25       27.18       27.10       27.01       26.92       26.81       26.69    
        26.57       26.43       26.27       26.10       25.91       25.69       25.44       25.14       24.77       24.24    
  25    27.69       27.68       27.67       27.66       27.64       27.62       27.59       27.56       27.52       27.48    
        27.43       27.38       27.32       27.25       27.18       27.10       27.01       26.92       26.81       26.69    
        26.57       26.43       26.27       26.10       25.91       25.69       25.44       25.14       24.77       24.24    
  26    27.69       27.68       27.67       27.66       27.64       27.62       27.59       27.56       27.52       27.48    
        27.43       27.38       27.32       27.25       27.18       27.10       27.01       26.92       26.81       26.69    
        26.57       26.43       26.27       26.10       25.91       25.69       25.44       25.14       24.77       24.24    
  27    27.69       27.68       27.67       27.66       27.64       27.62       27.59       27.56       27.52       27.48    
        27.43       27.38       27.32       27.25       27.18       27.10       27.01       26.92       26.81       26.69    
        26.57       26.43       26.27       26.10       25.91       25.69       25.44       25.14       24.77       24.24    
  28    27.69       27.68       27.67       27.66       27.64       27.62       27.59       27.56       27.52       27.48    
        27.43       27.38       27.32       27.25       27.18       27.10       27.01       26.92       26.81       26.69    
        26.57       26.43       26.27       26.10       25.91       25.69       25.44       25.14       24.77       24.24    
  29    27.69       27.68       27.67       27.66       27.64       27.62       27.59       27.56       27.52       27.48    
        27.43       27.38       27.32       27.25       27.18       27.10       27.01       26.92       26.81       26.69    
        26.57       26.43       26.27       26.10       25.91       25.69       25.44       25.14       24.77       24.24    
  30    27.69       27.68       27.67       27.66       27.64       27.62       27.59       27.56       27.52       27.48    
        27.43       27.38       27.32       27.25       27.18       27.10       27.01       26.92       26.81       26.69    
        26.57       26.43       26.27       26.10       25.91       25.69       25.44       25.14       24.77       24.24    

 HEAD WILL BE SAVED ON UNIT 1017 AT END OF TIME STEP    1, STRESS PERIOD   23



         TIME SUMMARY AT END OF TIME STEP    1 IN STRESS PERIOD   23
                    SECONDS     MINUTES      HOURS       DAYS        YEARS
                    -----------------------------------------------------------
   TIME STEP LENGTH 2.59200E+05  4320.0      72.000      3.0000     8.21355E-03
 STRESS PERIOD TIME 2.59200E+05  4320.0      72.000      3.0000     8.21355E-03
         TOTAL TIME 5.47776E+07 9.12960E+05  15216.      634.00      1.7358    
 UBDSV1 SAVING           STO-SS ON UNIT   1016 AT TIME STEP      2, STRESS PERIOD     23
 UBDSV1 SAVING           STO-SY ON UNIT   1016 AT TIME STEP      2, STRESS PERIOD     23
 UBDSV1 SAVING     FLOW-JA-FACE ON UNIT   1016 AT TIME STEP      2, STRESS PERIOD     23
 UBDSV06 SAVING              RCH IN MODEL TEST_TRANS       PACKAGE TEST_TRANS      CONNECTED TO MODEL TEST_TRANS       PACKAGE RCHA             ON UNIT   1016 AT TIME STEP      2, STRESS PERIOD     23
 UBDSV06 SAVING              CHD IN MODEL TEST_TRANS       PACKAGE TEST_TRANS      CONNECTED TO MODEL TEST_TRANS       PACKAGE CHD              ON UNIT   1016 AT TIME STEP      2, STRESS PERIOD     23

 HEAD WILL BE SAVED ON UNIT 1017 AT END OF TIME STEP    2, STRESS PERIOD   23
 UBDSV1 SAVING           STO-SS ON UNIT   1016 AT TIME STEP      3, STRESS PERIOD     23
 UBDSV1 SAVING           STO-SY ON UNIT   1016 AT TIME STEP      3, STRESS PERIOD     23
 UBDSV1 SAVING     FLOW-JA-FACE ON UNIT   1016 AT TIME STEP      3, STRESS PERIOD     23
 UBDSV06 SAVING              RCH IN MODEL TEST_TRANS       PACKAGE TEST_TRANS      CONNECTED TO MODEL TEST_TRANS       PACKAGE RCHA             ON UNIT   1016 AT TIME STEP      3, STRESS PERIOD     23
 UBDSV06 SAVING              CHD IN MODEL TEST_TRANS       PACKAGE TEST_TRANS      CONNECTED TO MODEL TEST_TRANS       PACKAGE CHD              ON UNIT   1016 AT TIME STEP      3, STRESS PERIOD     23

 HEAD WILL BE SAVED ON UNIT 1017 AT END OF TIME STEP    3, STRESS PERIOD   23
 UBDSV1 SAVING           STO-SS ON UNIT   1016 AT TIME STEP      4, STRESS PERIOD     23
 UBDSV1 SAVING           STO-SY ON UNIT   1016 AT TIME STEP      4, STRESS PERIOD     23
 UBDSV1 SAVING     FLOW-JA-FACE ON UNIT   1016 AT TIME STEP      4, STRESS PERIOD     23
 UBDSV06 SAVING              RCH IN MODEL TEST_TRANS       PACKAGE TEST_TRANS      CONNECTED TO MODEL TEST_TRANS       PACKAGE RCHA             ON UNIT   1016 AT TIME STEP      4, STRESS PERIOD     23
 UBDSV06 SAVING              CHD IN MODEL TEST_TRANS       PACKAGE TEST_TRANS      CONNECTED TO MODEL TEST_TRANS       PACKAGE CHD              ON UNIT   1016 AT TIME STEP      4, STRESS PERIOD     23

 HEAD WILL BE SAVED ON UNIT 1017 AT END OF TIME STEP    4, STRESS PERIOD   23
 UBDSV1 SAVING           STO-SS ON UNIT   1016 AT TIME STEP      5, STRESS PERIOD     23
 UBDSV1 SAVING           STO-SY ON UNIT   1016 AT TIME STEP      5, STRESS PERIOD     23
 UBDSV1 SAVING     FLOW-JA-FACE ON UNIT   1016 AT TIME STEP      5, STRESS PERIOD     23
 UBDSV06 SAVING              RCH IN MODEL TEST_TRANS       PACKAGE TEST_TRANS      CONNECTED TO MODEL TEST_TRANS       PACKAGE RCHA             ON UNIT   1016 AT TIME STEP      5, STRESS PERIOD     23
 UBDSV06 SAVING              CHD IN MODEL TEST_TRANS       PACKAGE TEST_TRANS      CONNECTED TO MODEL TEST_TRANS       PACKAGE CHD              ON UNIT   1016 AT TIME STEP      5, STRESS PERIOD     23

 HEAD WILL BE SAVED ON UNIT 1017 AT END OF TIME STEP    5, STRESS PERIOD   23
 UBDSV1 SAVING           STO-SS ON UNIT   1016 AT TIME STEP      6, STRESS PERIOD     23
 UBDSV1 SAVING           STO-SY ON UNIT   1016 AT TIME STEP      6, STRESS PERIOD     23
 UBDSV1 SAVING     FLOW-JA-FACE ON UNIT   1016 AT TIME STEP      6, STRESS PERIOD     23
 UBDSV06 SAVING              RCH IN MODEL TEST_TRANS       PACKAGE TEST_TRANS      CONNECTED TO MODEL TEST_TRANS       PACKAGE RCHA             ON UNIT   1016 AT TIME STEP      6, STRESS PERIOD     23
 UBDSV06 SAVING              CHD IN MODEL TEST_TRANS       PACKAGE TEST_TRANS      CONNECTED TO MODEL TEST_TRANS       PACKAGE CHD              ON UNIT   1016 AT TIME STEP      6, STRESS PERIOD     23

 HEAD WILL BE SAVED ON UNIT 1017 AT END OF TIME STEP    6, STRESS PERIOD   23
 UBDSV1 SAVING           STO-SS ON UNIT   1016 AT TIME STEP      7, STRESS PERIOD     23
 UBDSV1 SAVING           STO-SY ON UNIT   1016 AT TIME STEP      7, STRESS PERIOD     23
 UBDSV1 SAVING     FLOW-JA-FACE ON UNIT   1016 AT TIME STEP      7, STRESS PERIOD     23
 UBDSV06 SAVING              RCH IN MODEL TEST_TRANS       PACKAGE TEST_TRANS      CONNECTED TO MODEL TEST_TRANS       PACKAGE RCHA             ON UNIT   1016 AT TIME STEP      7, STRESS PERIOD     23
 UBDSV06 SAVING              CHD IN MODEL TEST_TRANS       PACKAGE TEST_TRANS      CONNECTED TO MODEL TEST_TRANS       PACKAGE CHD              ON UNIT   1016 AT TIME STEP      7, STRESS PERIOD     23

 HEAD WILL BE SAVED ON UNIT 1017 AT END OF TIME STEP    7, STRESS PERIOD   23
 UBDSV1 SAVING           STO-SS ON UNIT   1016 AT TIME STEP      8, STRESS PERIOD     23
 UBDSV1 SAVING           STO-SY ON UNIT   1016 AT TIME STEP      8, STRESS PERIOD     23
 UBDSV1 SAVING     FLOW-JA-FACE ON UNIT   1016 AT TIME STEP      8, STRESS PERIOD     23
 UBDSV06 SAVING              RCH IN MODEL TEST_TRANS       PACKAGE TEST_TRANS      CONNECTED TO MODEL TEST_TRANS       PACKAGE RCHA             ON UNIT   1016 AT TIME STEP      8, STRESS PERIOD     23
 UBDSV06 SAVING              CHD IN MODEL TEST_TRANS       PACKAGE TEST_TRANS      CONNECTED TO MODEL TEST_TRANS       PACKAGE CHD              ON UNIT   1016 AT TIME STEP      8, STRESS PERIOD     23

 HEAD WILL BE SAVED ON UNIT 1017 AT END OF TIME STEP    8, STRESS PERIOD   23
 UBDSV1 SAVING           STO-SS ON UNIT   1016 AT TIME STEP      9, STRESS PERIOD     23
 UBDSV1 SAVING           STO-SY ON UNIT   1016 AT TIME STEP      9, STRESS PERIOD     23
 UBDSV1 SAVING     FLOW-JA-FACE ON UNIT   1016 AT TIME STEP      9, STRESS PERIOD     23
 UBDSV06 SAVING              RCH IN MODEL TEST_TRANS       PACKAGE TEST_TRANS      CONNECTED TO MODEL TEST_TRANS       PACKAGE RCHA             ON UNIT   1016 AT TIME STEP      9, STRESS PERIOD     23
 UBDSV06 SAVING              CHD IN MODEL TEST_TRANS       PACKAGE TEST_TRANS      CONNECTED TO MODEL TEST_TRANS       PACKAGE CHD              ON UNIT   1016 AT TIME STEP      9, STRESS PERIOD     23

 HEAD WILL BE SAVED ON UNIT 1017 AT END OF TIME STEP    9, STRESS PERIOD   23
 UBDSV1 SAVING           STO-SS ON UNIT   1016 AT TIME STEP     10, STRESS PERIOD     23
 UBDSV1 SAVING           STO-SY ON UNIT   1016 AT TIME STEP     10, STRESS PERIOD     23
 UBDSV1 SAVING     FLOW-JA-FACE ON UNIT   1016 AT TIME STEP     10, STRESS PERIOD     23
 UBDSV06 SAVING              RCH IN MODEL TEST_TRANS       PACKAGE TEST_TRANS      CONNECTED TO MODEL TEST_TRANS       PACKAGE RCHA             ON UNIT   1016 AT TIME STEP     10, STRESS PERIOD     23
 UBDSV06 SAVING              CHD IN MODEL TEST_TRANS       PACKAGE TEST_TRANS      CONNECTED TO MODEL TEST_TRANS       PACKAGE CHD              ON UNIT   1016 AT TIME STEP     10, STRESS PERIOD     23
1
  HEAD IN LAYER   1 AT END OF TIME STEP  10 IN STRESS PERIOD   23
  ---------------------------------------------------------------------------

            1           2           3           4           5           6           7           8           9          10
           11          12          13          14          15          16          17          18          19          20
           21          22          23          24          25          26          27          28          29          30
 ........................................................................................................................
   1    27.76       27.76       27.75       27.73       27.71       27.69       27.66       27.63       27.59       27.54    
        27.49       27.43       27.37       27.30       27.22       27.14       27.04       26.94       26.83       26.71    
        26.58       26.43       26.27       26.09       25.90       25.67       25.42       25.12       24.75       24.24    
   2    27.76       27.76       27.75       27.73       27.71       27.69       27.66       27.63       27.59       27.54    
        27.49       27.43       27.37       27.30       27.22       27.14       27.04       26.94       26.83       26.71    
        26.58       26.43       26.27       26.09       25.90       25.67       25.42       25.12       24.75       24.24    
   3    27.76       27.76       27.75       27.73       27.71       27.69       27.66       27.63       27.59       27.54    
        27.49       27.43       27.37       27.30       27.22       27.14       27.04       26.94       26.83       26.71    
        26.58       26.43       26.27       26.09       25.90       25.67       25.42       25.12       24.75       24.24    
   4    27.76       27.76       27.75       27.73       27.71       27.69       27.66       27.63       27.59       27.54    
        27.49       27.43       27.37       27.30       27.22       27.14       27.04       26.94       26.83       26.71    
        26.58       26.43       26.27       26.09       25.90       25.67       25.42       25.12       24.75       24.24    
   5    27.76       27.76       27.75       27.73       27.71       27.69       27.66       27.63       27.59       27.54    
        27.49       27.43       27.37       27.30       27.22       27.14       27.04       26.94       26.83       26.71    
        26.58       26.43       26.27       26.09       25.90       25.67       25.42       25.12       24.75       24.24    
   6    27.76       27.76       27.75       27.73       27.71       27.69       27.66       27.63       27.59       27.54    
        27.49       27.43       27.37       27.30       27.22       27.14       27.04       26.94       26.83       26.71    
        26.58       26.43       26.27       26.09       25.90       25.67       25.42       25.12       24.75       24.24    
   7    27.76       27.76       27.75       27.73       27.71       27.69       27.66       27.63       27.59       27.54    
        27.49       27.43       27.37       27.30       27.22       27.14       27.04       26.94       26.83       26.71    
        26.58       26.43       26.27       26.09       25.90       25.67       25.42       25.12       24.75       24.24    
   8    27.76       27.76       27.75       27.73       27.71       27.69       27.66       27.63       27.59       27.54    
        27.49       27.43       27.37       27.30       27.22       27.14       27.04       26.94       26.83       26.71    
        26.58       26.43       26.27       26.09       25.90       25.67       25.42       25.12       24.75       24.24    
   9    27.76       27.76       27.75       27.73       27.71       27.69       27.66       27.63       27.59       27.54    
        27.49       27.43       27.37       27.30       27.22       27.14       27.04       26.94       26.83       26.71    
        26.58       26.43       26.27       26.09       25.90       25.67       25.42       25.12       24.75       24.24    
  10    27.76       27.76       27.75       27.73       27.71       27.69       27.66       27.63       27.59       27.54    
        27.49       27.43       27.37       27.30       27.22       27.14       27.04       26.94       26.83       26.71    
        26.58       26.43       26.27       26.09       25.90       25.67       25.42       25.12       24.75       24.24    
  11    27.76       27.76       27.75       27.73       27.71       27.69       27.66       27.63       27.59       27.54    
        27.49       27.43       27.37       27.30       27.22       27.14       27.04       26.94       26.83       26.71    
        26.58       26.43       26.27       26.09       25.90       25.67       25.42       25.12       24.75       24.24    
  12    27.76       27.76       27.75       27.73       27.71       27.69       27.66       27.63       27.59       27.54    
        27.49       27.43       27.37       27.30       27.22       27.14       27.04       26.94       26.83       26.71    
        26.58       26.43       26.27       26.09       25.90       25.67       25.42       25.12       24.75       24.24    
  13    27.76       27.76       27.75       27.73       27.71       27.69       27.66       27.63       27.59       27.54    
        27.49       27.43       27.37       27.30       27.22       27.14       27.04       26.94       26.83       26.71    
        26.58       26.43       26.27       26.09       25.90       25.67       25.42       25.12       24.75       24.24    
  14    27.76       27.76       27.75       27.73       27.71       27.69       27.66       27.63       27.59       27.54    
        27.49       27.43       27.37       27.30       27.22       27.14       27.04       26.94       26.83       26.71    
        26.58       26.43       26.27       26.09       25.90       25.67       25.42       25.12       24.75       24.24    
  15    27.76       27.76       27.75       27.73       27.71       27.69       27.66       27.63       27.59       27.54    
        27.49       27.43       27.37       27.30       27.22       27.14       27.04       26.94       26.83       26.71    
        26.58       26.43       26.27       26.09       25.90       25.67       25.42       25.12       24.75       24.24    
  16    27.76       27.76       27.75       27.73       27.71       27.69       27.66       27.63       27.59       27.54    
        27.49       27.43       27.37       27.30       27.22       27.14       27.04       26.94       26.83       26.71    
        26.58       26.43       26.27       26.09       25.90       25.67       25.42       25.12       24.75       24.24    
  17    27.76       27.76       27.75       27.73       27.71       27.69       27.66       27.63       27.59       27.54    
        27.49       27.43       27.37       27.30       27.22       27.14       27.04       26.94       26.83       26.71    
        26.58       26.43       26.27       26.09       25.90       25.67       25.42       25.12       24.75       24.24    
  18    27.76       27.76       27.75       27.73       27.71       27.69       27.66       27.63       27.59       27.54    
        27.49       27.43       27.37       27.30       27.22       27.14       27.04       26.94       26.83       26.71    
        26.58       26.43       26.27       26.09       25.90       25.67       25.42       25.12       24.75       24.24    
  19    27.76       27.76       27.75       27.73       27.71       27.69       27.66       27.63       27.59       27.54    
        27.49       27.43       27.37       27.30       27.22       27.14       27.04       26.94       26.83       26.71    
        26.58       26.43       26.27       26.09       25.90       25.67       25.42       25.12       24.75       24.24    
  20    27.76       27.76       27.75       27.73       27.71       27.69       27.66       27.63       27.59       27.54    
        27.49       27.43       27.37       27.30       27.22       27.14       27.04       26.94       26.83       26.71    
        26.58       26.43       26.27       26.09       25.90       25.67       25.42       25.12       24.75       24.24    
  21    27.76       27.76       27.75       27.73       27.71       27.69       27.66       27.63       27.59       27.54    
        27.49       27.43       27.37       27.30       27.22       27.14       27.04       26.94       26.83       26.71    
        26.58       26.43       26.27       26.09       25.90       25.67       25.42       25.12       24.75       24.24    
  22    27.76       27.76       27.75       27.73       27.71       27.69       27.66       27.63       27.59       27.54    
        27.49       27.43       27.37       27.30       27.22       27.14       27.04       26.94       26.83       26.71    
        26.58       26.43       26.27       26.09       25.90       25.67       25.42       25.12       24.75       24.24    
  23    27.76       27.76       27.75       27.73       27.71       27.69       27.66       27.63       27.59       27.54    
        27.49       27.43       27.37       27.30       27.22       27.14       27.04       26.94       26.83       26.71    
        26.58       26.43       26.27       26.09       25.90       25.67       25.42       25.12       24.75       24.24    
  24    27.76       27.76       27.75       27.73       27.71       27.69       27.66       27.63       27.59       27.54    
        27.49       27.43       27.37       27.30       27.22       27.14       27.04       26.94       26.83       26.71    
        26.58       26.43       26.27       26.09       25.90       25.67       25.42       25.12       24.75       24.24    
  25    27.76       27.76       27.75       27.73       27.71       27.69       27.66       27.63       27.59       27.54    
        27.49       27.43       27.37       27.30       27.22       27.14       27.04       26.94       26.83       26.71    
        26.58       26.43       26.27       26.09       25.90       25.67       25.42       25.12       24.75       24.24    
  26    27.76       27.76       27.75       27.73       27.71       27.69       27.66       27.63       27.59       27.54    
        27.49       27.43       27.37       27.30       27.22       27.14       27.04       26.94       26.83       26.71    
        26.58       26.43       26.27       26.09       25.90       25.67       25.42       25.12       24.75       24.24    
  27    27.76       27.76       27.75       27.73       27.71       27.69       27.66       27.63       27.59       27.54    
        27.49       27.43       27.37       27.30       27.22       27.14       27.04       26.94       26.83       26.71    
        26.58       26.43       26.27       26.09       25.90       25.67       25.42       25.12       24.75       24.24    
  28    27.76       27.76       27.75       27.73       27.71       27.69       27.66       27.63       27.59       27.54    
        27.49       27.43       27.37       27.30       27.22       27.14       27.04       26.94       26.83       26.71    
        26.58       26.43       26.27       26.09       25.90       25.67       25.42       25.12       24.75       24.24    
  29    27.76       27.76       27.75       27.73       27.71       27.69       27.66       27.63       27.59       27.54    
        27.49       27.43       27.37       27.30       27.22       27.14       27.04       26.94       26.83       26.71    
        26.58       26.43       26.27       26.09       25.90       25.67       25.42       25.12       24.75       24.24    
  30    27.76       27.76       27.75       27.73       27.71       27.69       27.66       27.63       27.59       27.54    
        27.49       27.43       27.37       27.30       27.22       27.14       27.04       26.94       26.83       26.71    
        26.58       26.43       26.27       26.09       25.90       25.67       25.42       25.12       24.75       24.24    

 HEAD WILL BE SAVED ON UNIT 1017 AT END OF TIME STEP   10, STRESS PERIOD   23


  VOLUME BUDGET FOR ENTIRE MODEL AT END OF TIME STEP   10, STRESS PERIOD  23
  ---------------------------------------------------------------------------------------------------

     CUMULATIVE VOLUME      L**3       RATES FOR THIS TIME STEP      L**3/T          PACKAGE NAME    
     ------------------                 ------------------------                     ----------------

           IN:                                      IN:
           ---                                      ---
              STO-SS =          41.8113                STO-SS =           0.0000     STORAGE         
              STO-SY =       26952.1985                STO-SY =           0.0000     STORAGE         
                 RCH =      105353.4600                   RCH =         214.5203     RCHA            
                 CHD =        2273.1987                   CHD =           0.0000     CHD             

            TOTAL IN =      134620.6685              TOTAL IN =         214.5203

          OUT:                                     OUT:
          ----                                     ----
              STO-SS =          27.7620                STO-SS =       3.8415E-02     STORAGE         
              STO-SY =       18135.4700                STO-SY =          24.1300     STORAGE         
                 RCH =           0.0000                   RCH =           0.0000     RCHA            
                 CHD =      116456.7897                   CHD =         190.3606     CHD             

           TOTAL OUT =      134620.0217             TOTAL OUT =         214.5291

            IN - OUT =           0.6469              IN - OUT =      -8.8152E-03

 PERCENT DISCREPANCY =           0.00     PERCENT DISCREPANCY =          -0.00




         TIME SUMMARY AT END OF TIME STEP   10 IN STRESS PERIOD   23
                    SECONDS     MINUTES      HOURS       DAYS        YEARS
                    -----------------------------------------------------------
   TIME STEP LENGTH 2.59200E+05  4320.0      72.000      3.0000     8.21355E-03
 STRESS PERIOD TIME 2.59200E+06  43200.      720.00      30.000     8.21355E-02
         TOTAL TIME 5.71104E+07 9.51840E+05  15864.      661.00      1.8097    

 OUTPUT CONTROL FOR STRESS PERIOD 24 IS REPEATED USING SETTINGS FROM A PREVIOUS STRESS PERIOD.


 STRESS PERIOD 24 IS TRANSIENT


                 RECHARGE =  0.2739730E-02
 UBDSV1 SAVING           STO-SS ON UNIT   1016 AT TIME STEP      1, STRESS PERIOD     24
 UBDSV1 SAVING           STO-SY ON UNIT   1016 AT TIME STEP      1, STRESS PERIOD     24
 UBDSV1 SAVING     FLOW-JA-FACE ON UNIT   1016 AT TIME STEP      1, STRESS PERIOD     24
 UBDSV06 SAVING              RCH IN MODEL TEST_TRANS       PACKAGE TEST_TRANS      CONNECTED TO MODEL TEST_TRANS       PACKAGE RCHA             ON UNIT   1016 AT TIME STEP      1, STRESS PERIOD     24
 UBDSV06 SAVING              CHD IN MODEL TEST_TRANS       PACKAGE TEST_TRANS      CONNECTED TO MODEL TEST_TRANS       PACKAGE CHD              ON UNIT   1016 AT TIME STEP      1, STRESS PERIOD     24
1
  HEAD IN LAYER   1 AT END OF TIME STEP   1 IN STRESS PERIOD   24
  ---------------------------------------------------------------------------

            1           2           3           4           5           6           7           8           9          10
           11          12          13          14          15          16          17          18          19          20
           21          22          23          24          25          26          27          28          29          30
 ........................................................................................................................
   1    27.77       27.77       27.76       27.75       27.73       27.70       27.67       27.64       27.60       27.55    
        27.50       27.44       27.38       27.31       27.23       27.15       27.05       26.95       26.84       26.72    
        26.58       26.44       26.28       26.10       25.90       25.67       25.41       25.09       24.69       24.06    
   2    27.77       27.77       27.76       27.75       27.73       27.70       27.67       27.64       27.60       27.55    
        27.50       27.44       27.38       27.31       27.23       27.15       27.05       26.95       26.84       26.72    
        26.58       26.44       26.28       26.10       25.90       25.67       25.41       25.09       24.69       24.06    
   3    27.77       27.77       27.76       27.75       27.73       27.70       27.67       27.64       27.60       27.55    
        27.50       27.44       27.38       27.31       27.23       27.15       27.05       26.95       26.84       26.72    
        26.58       26.44       26.28       26.10       25.90       25.67       25.41       25.09       24.69       24.06    
   4    27.77       27.77       27.76       27.75       27.73       27.70       27.67       27.64       27.60       27.55    
        27.50       27.44       27.38       27.31       27.23       27.15       27.05       26.95       26.84       26.72    
        26.58       26.44       26.28       26.10       25.90       25.67       25.41       25.09       24.69       24.06    
   5    27.77       27.77       27.76       27.75       27.73       27.70       27.67       27.64       27.60       27.55    
        27.50       27.44       27.38       27.31       27.23       27.15       27.05       26.95       26.84       26.72    
        26.58       26.44       26.28       26.10       25.90       25.67       25.41       25.09       24.69       24.06    
   6    27.77       27.77       27.76       27.75       27.73       27.70       27.67       27.64       27.60       27.55    
        27.50       27.44       27.38       27.31       27.23       27.15       27.05       26.95       26.84       26.72    
        26.58       26.44       26.28       26.10       25.90       25.67       25.41       25.09       24.69       24.06    
   7    27.77       27.77       27.76       27.75       27.73       27.70       27.67       27.64       27.60       27.55    
        27.50       27.44       27.38       27.31       27.23       27.15       27.05       26.95       26.84       26.72    
        26.58       26.44       26.28       26.10       25.90       25.67       25.41       25.09       24.69       24.06    
   8    27.77       27.77       27.76       27.75       27.73       27.70       27.67       27.64       27.60       27.55    
        27.50       27.44       27.38       27.31       27.23       27.15       27.05       26.95       26.84       26.72    
        26.58       26.44       26.28       26.10       25.90       25.67       25.41       25.09       24.69       24.06    
   9    27.77       27.77       27.76       27.75       27.73       27.70       27.67       27.64       27.60       27.55    
        27.50       27.44       27.38       27.31       27.23       27.15       27.05       26.95       26.84       26.72    
        26.58       26.44       26.28       26.10       25.90       25.67       25.41       25.09       24.69       24.06    
  10    27.77       27.77       27.76       27.75       27.73       27.70       27.67       27.64       27.60       27.55    
        27.50       27.44       27.38       27.31       27.23       27.15       27.05       26.95       26.84       26.72    
        26.58       26.44       26.28       26.10       25.90       25.67       25.41       25.09       24.69       24.06    
  11    27.77       27.77       27.76       27.75       27.73       27.70       27.67       27.64       27.60       27.55    
        27.50       27.44       27.38       27.31       27.23       27.15       27.05       26.95       26.84       26.72    
        26.58       26.44       26.28       26.10       25.90       25.67       25.41       25.09       24.69       24.06    
  12    27.77       27.77       27.76       27.75       27.73       27.70       27.67       27.64       27.60       27.55    
        27.50       27.44       27.38       27.31       27.23       27.15       27.05       26.95       26.84       26.72    
        26.58       26.44       26.28       26.10       25.90       25.67       25.41       25.09       24.69       24.06    
  13    27.77       27.77       27.76       27.75       27.73       27.70       27.67       27.64       27.60       27.55    
        27.50       27.44       27.38       27.31       27.23       27.15       27.05       26.95       26.84       26.72    
        26.58       26.44       26.28       26.10       25.90       25.67       25.41       25.09       24.69       24.06    
  14    27.77       27.77       27.76       27.75       27.73       27.70       27.67       27.64       27.60       27.55    
        27.50       27.44       27.38       27.31       27.23       27.15       27.05       26.95       26.84       26.72    
        26.58       26.44       26.28       26.10       25.90       25.67       25.41       25.09       24.69       24.06    
  15    27.77       27.77       27.76       27.75       27.73       27.70       27.67       27.64       27.60       27.55    
        27.50       27.44       27.38       27.31       27.23       27.15       27.05       26.95       26.84       26.72    
        26.58       26.44       26.28       26.10       25.90       25.67       25.41       25.09       24.69       24.06    
  16    27.77       27.77       27.76       27.75       27.73       27.70       27.67       27.64       27.60       27.55    
        27.50       27.44       27.38       27.31       27.23       27.15       27.05       26.95       26.84       26.72    
        26.58       26.44       26.28       26.10       25.90       25.67       25.41       25.09       24.69       24.06    
  17    27.77       27.77       27.76       27.75       27.73       27.70       27.67       27.64       27.60       27.55    
        27.50       27.44       27.38       27.31       27.23       27.15       27.05       26.95       26.84       26.72    
        26.58       26.44       26.28       26.10       25.90       25.67       25.41       25.09       24.69       24.06    
  18    27.77       27.77       27.76       27.75       27.73       27.70       27.67       27.64       27.60       27.55    
        27.50       27.44       27.38       27.31       27.23       27.15       27.05       26.95       26.84       26.72    
        26.58       26.44       26.28       26.10       25.90       25.67       25.41       25.09       24.69       24.06    
  19    27.77       27.77       27.76       27.75       27.73       27.70       27.67       27.64       27.60       27.55    
        27.50       27.44       27.38       27.31       27.23       27.15       27.05       26.95       26.84       26.72    
        26.58       26.44       26.28       26.10       25.90       25.67       25.41       25.09       24.69       24.06    
  20    27.77       27.77       27.76       27.75       27.73       27.70       27.67       27.64       27.60       27.55    
        27.50       27.44       27.38       27.31       27.23       27.15       27.05       26.95       26.84       26.72    
        26.58       26.44       26.28       26.10       25.90       25.67       25.41       25.09       24.69       24.06    
  21    27.77       27.77       27.76       27.75       27.73       27.70       27.67       27.64       27.60       27.55    
        27.50       27.44       27.38       27.31       27.23       27.15       27.05       26.95       26.84       26.72    
        26.58       26.44       26.28       26.10       25.90       25.67       25.41       25.09       24.69       24.06    
  22    27.77       27.77       27.76       27.75       27.73       27.70       27.67       27.64       27.60       27.55    
        27.50       27.44       27.38       27.31       27.23       27.15       27.05       26.95       26.84       26.72    
        26.58       26.44       26.28       26.10       25.90       25.67       25.41       25.09       24.69       24.06    
  23    27.77       27.77       27.76       27.75       27.73       27.70       27.67       27.64       27.60       27.55    
        27.50       27.44       27.38       27.31       27.23       27.15       27.05       26.95       26.84       26.72    
        26.58       26.44       26.28       26.10       25.90       25.67       25.41       25.09       24.69       24.06    
  24    27.77       27.77       27.76       27.75       27.73       27.70       27.67       27.64       27.60       27.55    
        27.50       27.44       27.38       27.31       27.23       27.15       27.05       26.95       26.84       26.72    
        26.58       26.44       26.28       26.10       25.90       25.67       25.41       25.09       24.69       24.06    
  25    27.77       27.77       27.76       27.75       27.73       27.70       27.67       27.64       27.60       27.55    
        27.50       27.44       27.38       27.31       27.23       27.15       27.05       26.95       26.84       26.72    
        26.58       26.44       26.28       26.10       25.90       25.67       25.41       25.09       24.69       24.06    
  26    27.77       27.77       27.76       27.75       27.73       27.70       27.67       27.64       27.60       27.55    
        27.50       27.44       27.38       27.31       27.23       27.15       27.05       26.95       26.84       26.72    
        26.58       26.44       26.28       26.10       25.90       25.67       25.41       25.09       24.69       24.06    
  27    27.77       27.77       27.76       27.75       27.73       27.70       27.67       27.64       27.60       27.55    
        27.50       27.44       27.38       27.31       27.23       27.15       27.05       26.95       26.84       26.72    
        26.58       26.44       26.28       26.10       25.90       25.67       25.41       25.09       24.69       24.06    
  28    27.77       27.77       27.76       27.75       27.73       27.70       27.67       27.64       27.60       27.55    
        27.50       27.44       27.38       27.31       27.23       27.15       27.05       26.95       26.84       26.72    
        26.58       26.44       26.28       26.10       25.90       25.67       25.41       25.09       24.69       24.06    
  29    27.77       27.77       27.76       27.75       27.73       27.70       27.67       27.64       27.60       27.55    
        27.50       27.44       27.38       27.31       27.23       27.15       27.05       26.95       26.84       26.72    
        26.58       26.44       26.28       26.10       25.90       25.67       25.41       25.09       24.69       24.06    
  30    27.77       27.77       27.76       27.75       27.73       27.70       27.67       27.64       27.60       27.55    
        27.50       27.44       27.38       27.31       27.23       27.15       27.05       26.95       26.84       26.72    
        26.58       26.44       26.28       26.10       25.90       25.67       25.41       25.09       24.69       24.06    

 HEAD WILL BE SAVED ON UNIT 1017 AT END OF TIME STEP    1, STRESS PERIOD   24



         TIME SUMMARY AT END OF TIME STEP    1 IN STRESS PERIOD   24
                    SECONDS     MINUTES      HOURS       DAYS        YEARS
                    -----------------------------------------------------------
   TIME STEP LENGTH 2.59200E+05  4320.0      72.000      3.0000     8.21355E-03
 STRESS PERIOD TIME 2.59200E+05  4320.0      72.000      3.0000     8.21355E-03
         TOTAL TIME 5.73696E+07 9.56160E+05  15936.      664.00      1.8179    
 UBDSV1 SAVING           STO-SS ON UNIT   1016 AT TIME STEP      2, STRESS PERIOD     24
 UBDSV1 SAVING           STO-SY ON UNIT   1016 AT TIME STEP      2, STRESS PERIOD     24
 UBDSV1 SAVING     FLOW-JA-FACE ON UNIT   1016 AT TIME STEP      2, STRESS PERIOD     24
 UBDSV06 SAVING              RCH IN MODEL TEST_TRANS       PACKAGE TEST_TRANS      CONNECTED TO MODEL TEST_TRANS       PACKAGE RCHA             ON UNIT   1016 AT TIME STEP      2, STRESS PERIOD     24
 UBDSV06 SAVING              CHD IN MODEL TEST_TRANS       PACKAGE TEST_TRANS      CONNECTED TO MODEL TEST_TRANS       PACKAGE CHD              ON UNIT   1016 AT TIME STEP      2, STRESS PERIOD     24

 HEAD WILL BE SAVED ON UNIT 1017 AT END OF TIME STEP    2, STRESS PERIOD   24
 UBDSV1 SAVING           STO-SS ON UNIT   1016 AT TIME STEP      3, STRESS PERIOD     24
 UBDSV1 SAVING           STO-SY ON UNIT   1016 AT TIME STEP      3, STRESS PERIOD     24
 UBDSV1 SAVING     FLOW-JA-FACE ON UNIT   1016 AT TIME STEP      3, STRESS PERIOD     24
 UBDSV06 SAVING              RCH IN MODEL TEST_TRANS       PACKAGE TEST_TRANS      CONNECTED TO MODEL TEST_TRANS       PACKAGE RCHA             ON UNIT   1016 AT TIME STEP      3, STRESS PERIOD     24
 UBDSV06 SAVING              CHD IN MODEL TEST_TRANS       PACKAGE TEST_TRANS      CONNECTED TO MODEL TEST_TRANS       PACKAGE CHD              ON UNIT   1016 AT TIME STEP      3, STRESS PERIOD     24

 HEAD WILL BE SAVED ON UNIT 1017 AT END OF TIME STEP    3, STRESS PERIOD   24
 UBDSV1 SAVING           STO-SS ON UNIT   1016 AT TIME STEP      4, STRESS PERIOD     24
 UBDSV1 SAVING           STO-SY ON UNIT   1016 AT TIME STEP      4, STRESS PERIOD     24
 UBDSV1 SAVING     FLOW-JA-FACE ON UNIT   1016 AT TIME STEP      4, STRESS PERIOD     24
 UBDSV06 SAVING              RCH IN MODEL TEST_TRANS       PACKAGE TEST_TRANS      CONNECTED TO MODEL TEST_TRANS       PACKAGE RCHA             ON UNIT   1016 AT TIME STEP      4, STRESS PERIOD     24
 UBDSV06 SAVING              CHD IN MODEL TEST_TRANS       PACKAGE TEST_TRANS      CONNECTED TO MODEL TEST_TRANS       PACKAGE CHD              ON UNIT   1016 AT TIME STEP      4, STRESS PERIOD     24

 HEAD WILL BE SAVED ON UNIT 1017 AT END OF TIME STEP    4, STRESS PERIOD   24
 UBDSV1 SAVING           STO-SS ON UNIT   1016 AT TIME STEP      5, STRESS PERIOD     24
 UBDSV1 SAVING           STO-SY ON UNIT   1016 AT TIME STEP      5, STRESS PERIOD     24
 UBDSV1 SAVING     FLOW-JA-FACE ON UNIT   1016 AT TIME STEP      5, STRESS PERIOD     24
 UBDSV06 SAVING              RCH IN MODEL TEST_TRANS       PACKAGE TEST_TRANS      CONNECTED TO MODEL TEST_TRANS       PACKAGE RCHA             ON UNIT   1016 AT TIME STEP      5, STRESS PERIOD     24
 UBDSV06 SAVING              CHD IN MODEL TEST_TRANS       PACKAGE TEST_TRANS      CONNECTED TO MODEL TEST_TRANS       PACKAGE CHD              ON UNIT   1016 AT TIME STEP      5, STRESS PERIOD     24

 HEAD WILL BE SAVED ON UNIT 1017 AT END OF TIME STEP    5, STRESS PERIOD   24
 UBDSV1 SAVING           STO-SS ON UNIT   1016 AT TIME STEP      6, STRESS PERIOD     24
 UBDSV1 SAVING           STO-SY ON UNIT   1016 AT TIME STEP      6, STRESS PERIOD     24
 UBDSV1 SAVING     FLOW-JA-FACE ON UNIT   1016 AT TIME STEP      6, STRESS PERIOD     24
 UBDSV06 SAVING              RCH IN MODEL TEST_TRANS       PACKAGE TEST_TRANS      CONNECTED TO MODEL TEST_TRANS       PACKAGE RCHA             ON UNIT   1016 AT TIME STEP      6, STRESS PERIOD     24
 UBDSV06 SAVING              CHD IN MODEL TEST_TRANS       PACKAGE TEST_TRANS      CONNECTED TO MODEL TEST_TRANS       PACKAGE CHD              ON UNIT   1016 AT TIME STEP      6, STRESS PERIOD     24

 HEAD WILL BE SAVED ON UNIT 1017 AT END OF TIME STEP    6, STRESS PERIOD   24
 UBDSV1 SAVING           STO-SS ON UNIT   1016 AT TIME STEP      7, STRESS PERIOD     24
 UBDSV1 SAVING           STO-SY ON UNIT   1016 AT TIME STEP      7, STRESS PERIOD     24
 UBDSV1 SAVING     FLOW-JA-FACE ON UNIT   1016 AT TIME STEP      7, STRESS PERIOD     24
 UBDSV06 SAVING              RCH IN MODEL TEST_TRANS       PACKAGE TEST_TRANS      CONNECTED TO MODEL TEST_TRANS       PACKAGE RCHA             ON UNIT   1016 AT TIME STEP      7, STRESS PERIOD     24
 UBDSV06 SAVING              CHD IN MODEL TEST_TRANS       PACKAGE TEST_TRANS      CONNECTED TO MODEL TEST_TRANS       PACKAGE CHD              ON UNIT   1016 AT TIME STEP      7, STRESS PERIOD     24

 HEAD WILL BE SAVED ON UNIT 1017 AT END OF TIME STEP    7, STRESS PERIOD   24
 UBDSV1 SAVING           STO-SS ON UNIT   1016 AT TIME STEP      8, STRESS PERIOD     24
 UBDSV1 SAVING           STO-SY ON UNIT   1016 AT TIME STEP      8, STRESS PERIOD     24
 UBDSV1 SAVING     FLOW-JA-FACE ON UNIT   1016 AT TIME STEP      8, STRESS PERIOD     24
 UBDSV06 SAVING              RCH IN MODEL TEST_TRANS       PACKAGE TEST_TRANS      CONNECTED TO MODEL TEST_TRANS       PACKAGE RCHA             ON UNIT   1016 AT TIME STEP      8, STRESS PERIOD     24
 UBDSV06 SAVING              CHD IN MODEL TEST_TRANS       PACKAGE TEST_TRANS      CONNECTED TO MODEL TEST_TRANS       PACKAGE CHD              ON UNIT   1016 AT TIME STEP      8, STRESS PERIOD     24

 HEAD WILL BE SAVED ON UNIT 1017 AT END OF TIME STEP    8, STRESS PERIOD   24
 UBDSV1 SAVING           STO-SS ON UNIT   1016 AT TIME STEP      9, STRESS PERIOD     24
 UBDSV1 SAVING           STO-SY ON UNIT   1016 AT TIME STEP      9, STRESS PERIOD     24
 UBDSV1 SAVING     FLOW-JA-FACE ON UNIT   1016 AT TIME STEP      9, STRESS PERIOD     24
 UBDSV06 SAVING              RCH IN MODEL TEST_TRANS       PACKAGE TEST_TRANS      CONNECTED TO MODEL TEST_TRANS       PACKAGE RCHA             ON UNIT   1016 AT TIME STEP      9, STRESS PERIOD     24
 UBDSV06 SAVING              CHD IN MODEL TEST_TRANS       PACKAGE TEST_TRANS      CONNECTED TO MODEL TEST_TRANS       PACKAGE CHD              ON UNIT   1016 AT TIME STEP      9, STRESS PERIOD     24

 HEAD WILL BE SAVED ON UNIT 1017 AT END OF TIME STEP    9, STRESS PERIOD   24
 UBDSV1 SAVING           STO-SS ON UNIT   1016 AT TIME STEP     10, STRESS PERIOD     24
 UBDSV1 SAVING           STO-SY ON UNIT   1016 AT TIME STEP     10, STRESS PERIOD     24
 UBDSV1 SAVING     FLOW-JA-FACE ON UNIT   1016 AT TIME STEP     10, STRESS PERIOD     24
 UBDSV06 SAVING              RCH IN MODEL TEST_TRANS       PACKAGE TEST_TRANS      CONNECTED TO MODEL TEST_TRANS       PACKAGE RCHA             ON UNIT   1016 AT TIME STEP     10, STRESS PERIOD     24
 UBDSV06 SAVING              CHD IN MODEL TEST_TRANS       PACKAGE TEST_TRANS      CONNECTED TO MODEL TEST_TRANS       PACKAGE CHD              ON UNIT   1016 AT TIME STEP     10, STRESS PERIOD     24
1
  HEAD IN LAYER   1 AT END OF TIME STEP  10 IN STRESS PERIOD   24
  ---------------------------------------------------------------------------

            1           2           3           4           5           6           7           8           9          10
           11          12          13          14          15          16          17          18          19          20
           21          22          23          24          25          26          27          28          29          30
 ........................................................................................................................
   1    27.87       27.86       27.85       27.84       27.82       27.79       27.76       27.72       27.68       27.63    
        27.58       27.52       27.45       27.38       27.30       27.21       27.11       27.01       26.89       26.76    
        26.62       26.47       26.30       26.11       25.91       25.67       25.39       25.07       24.66       24.06    
   2    27.87       27.86       27.85       27.84       27.82       27.79       27.76       27.72       27.68       27.63    
        27.58       27.52       27.45       27.38       27.30       27.21       27.11       27.01       26.89       26.76    
        26.62       26.47       26.30       26.11       25.91       25.67       25.39       25.07       24.66       24.06    
   3    27.87       27.86       27.85       27.84       27.82       27.79       27.76       27.72       27.68       27.63    
        27.58       27.52       27.45       27.38       27.30       27.21       27.11       27.01       26.89       26.76    
        26.62       26.47       26.30       26.11       25.91       25.67       25.39       25.07       24.66       24.06    
   4    27.87       27.86       27.85       27.84       27.82       27.79       27.76       27.72       27.68       27.63    
        27.58       27.52       27.45       27.38       27.30       27.21       27.11       27.01       26.89       26.76    
        26.62       26.47       26.30       26.11       25.91       25.67       25.39       25.07       24.66       24.06    
   5    27.87       27.86       27.85       27.84       27.82       27.79       27.76       27.72       27.68       27.63    
        27.58       27.52       27.45       27.38       27.30       27.21       27.11       27.01       26.89       26.76    
        26.62       26.47       26.30       26.11       25.91       25.67       25.39       25.07       24.66       24.06    
   6    27.87       27.86       27.85       27.84       27.82       27.79       27.76       27.72       27.68       27.63    
        27.58       27.52       27.45       27.38       27.30       27.21       27.11       27.01       26.89       26.76    
        26.62       26.47       26.30       26.11       25.91       25.67       25.39       25.07       24.66       24.06    
   7    27.87       27.86       27.85       27.84       27.82       27.79       27.76       27.72       27.68       27.63    
        27.58       27.52       27.45       27.38       27.30       27.21       27.11       27.01       26.89       26.76    
        26.62       26.47       26.30       26.11       25.91       25.67       25.39       25.07       24.66       24.06    
   8    27.87       27.86       27.85       27.84       27.82       27.79       27.76       27.72       27.68       27.63    
        27.58       27.52       27.45       27.38       27.30       27.21       27.11       27.01       26.89       26.76    
        26.62       26.47       26.30       26.11       25.91       25.67       25.39       25.07       24.66       24.06    
   9    27.87       27.86       27.85       27.84       27.82       27.79       27.76       27.72       27.68       27.63    
        27.58       27.52       27.45       27.38       27.30       27.21       27.11       27.01       26.89       26.76    
        26.62       26.47       26.30       26.11       25.91       25.67       25.39       25.07       24.66       24.06    
  10    27.87       27.86       27.85       27.84       27.82       27.79       27.76       27.72       27.68       27.63    
        27.58       27.52       27.45       27.38       27.30       27.21       27.11       27.01       26.89       26.76    
        26.62       26.47       26.30       26.11       25.91       25.67       25.39       25.07       24.66       24.06    
  11    27.87       27.86       27.85       27.84       27.82       27.79       27.76       27.72       27.68       27.63    
        27.58       27.52       27.45       27.38       27.30       27.21       27.11       27.01       26.89       26.76    
        26.62       26.47       26.30       26.11       25.91       25.67       25.39       25.07       24.66       24.06    
  12    27.87       27.86       27.85       27.84       27.82       27.79       27.76       27.72       27.68       27.63    
        27.58       27.52       27.45       27.38       27.30       27.21       27.11       27.01       26.89       26.76    
        26.62       26.47       26.30       26.11       25.91       25.67       25.39       25.07       24.66       24.06    
  13    27.87       27.86       27.85       27.84       27.82       27.79       27.76       27.72       27.68       27.63    
        27.58       27.52       27.45       27.38       27.30       27.21       27.11       27.01       26.89       26.76    
        26.62       26.47       26.30       26.11       25.91       25.67       25.39       25.07       24.66       24.06    
  14    27.87       27.86       27.85       27.84       27.82       27.79       27.76       27.72       27.68       27.63    
        27.58       27.52       27.45       27.38       27.30       27.21       27.11       27.01       26.89       26.76    
        26.62       26.47       26.30       26.11       25.91       25.67       25.39       25.07       24.66       24.06    
  15    27.87       27.86       27.85       27.84       27.82       27.79       27.76       27.72       27.68       27.63    
        27.58       27.52       27.45       27.38       27.30       27.21       27.11       27.01       26.89       26.76    
        26.62       26.47       26.30       26.11       25.91       25.67       25.39       25.07       24.66       24.06    
  16    27.87       27.86       27.85       27.84       27.82       27.79       27.76       27.72       27.68       27.63    
        27.58       27.52       27.45       27.38       27.30       27.21       27.11       27.01       26.89       26.76    
        26.62       26.47       26.30       26.11       25.91       25.67       25.39       25.07       24.66       24.06    
  17    27.87       27.86       27.85       27.84       27.82       27.79       27.76       27.72       27.68       27.63    
        27.58       27.52       27.45       27.38       27.30       27.21       27.11       27.01       26.89       26.76    
        26.62       26.47       26.30       26.11       25.91       25.67       25.39       25.07       24.66       24.06    
  18    27.87       27.86       27.85       27.84       27.82       27.79       27.76       27.72       27.68       27.63    
        27.58       27.52       27.45       27.38       27.30       27.21       27.11       27.01       26.89       26.76    
        26.62       26.47       26.30       26.11       25.91       25.67       25.39       25.07       24.66       24.06    
  19    27.87       27.86       27.85       27.84       27.82       27.79       27.76       27.72       27.68       27.63    
        27.58       27.52       27.45       27.38       27.30       27.21       27.11       27.01       26.89       26.76    
        26.62       26.47       26.30       26.11       25.91       25.67       25.39       25.07       24.66       24.06    
  20    27.87       27.86       27.85       27.84       27.82       27.79       27.76       27.72       27.68       27.63    
        27.58       27.52       27.45       27.38       27.30       27.21       27.11       27.01       26.89       26.76    
        26.62       26.47       26.30       26.11       25.91       25.67       25.39       25.07       24.66       24.06    
  21    27.87       27.86       27.85       27.84       27.82       27.79       27.76       27.72       27.68       27.63    
        27.58       27.52       27.45       27.38       27.30       27.21       27.11       27.01       26.89       26.76    
        26.62       26.47       26.30       26.11       25.91       25.67       25.39       25.07       24.66       24.06    
  22    27.87       27.86       27.85       27.84       27.82       27.79       27.76       27.72       27.68       27.63    
        27.58       27.52       27.45       27.38       27.30       27.21       27.11       27.01       26.89       26.76    
        26.62       26.47       26.30       26.11       25.91       25.67       25.39       25.07       24.66       24.06    
  23    27.87       27.86       27.85       27.84       27.82       27.79       27.76       27.72       27.68       27.63    
        27.58       27.52       27.45       27.38       27.30       27.21       27.11       27.01       26.89       26.76    
        26.62       26.47       26.30       26.11       25.91       25.67       25.39       25.07       24.66       24.06    
  24    27.87       27.86       27.85       27.84       27.82       27.79       27.76       27.72       27.68       27.63    
        27.58       27.52       27.45       27.38       27.30       27.21       27.11       27.01       26.89       26.76    
        26.62       26.47       26.30       26.11       25.91       25.67       25.39       25.07       24.66       24.06    
  25    27.87       27.86       27.85       27.84       27.82       27.79       27.76       27.72       27.68       27.63    
        27.58       27.52       27.45       27.38       27.30       27.21       27.11       27.01       26.89       26.76    
        26.62       26.47       26.30       26.11       25.91       25.67       25.39       25.07       24.66       24.06    
  26    27.87       27.86       27.85       27.84       27.82       27.79       27.76       27.72       27.68       27.63    
        27.58       27.52       27.45       27.38       27.30       27.21       27.11       27.01       26.89       26.76    
        26.62       26.47       26.30       26.11       25.90       25.67       25.39       25.07       24.66       24.06    
  27    27.87       27.86       27.85       27.84       27.82       27.79       27.76       27.72       27.68       27.63    
        27.58       27.52       27.45       27.38       27.30       27.21       27.11       27.01       26.89       26.76    
        26.62       26.47       26.30       26.11       25.90       25.67       25.39       25.07       24.66       24.06    
  28    27.87       27.86       27.85       27.84       27.82       27.79       27.76       27.72       27.68       27.63    
        27.58       27.52       27.45       27.38       27.30       27.21       27.11       27.01       26.89       26.76    
        26.62       26.47       26.30       26.11       25.90       25.67       25.39       25.07       24.66       24.06    
  29    27.87       27.86       27.85       27.84       27.82       27.79       27.76       27.72       27.68       27.63    
        27.58       27.52       27.45       27.38       27.30       27.21       27.11       27.01       26.89       26.76    
        26.62       26.47       26.30       26.11       25.90       25.67       25.39       25.07       24.66       24.06    
  30    27.87       27.86       27.85       27.84       27.82       27.79       27.76       27.72       27.68       27.63    
        27.58       27.52       27.45       27.38       27.30       27.21       27.11       27.01       26.89       26.76    
        26.62       26.47       26.30       26.11       25.90       25.67       25.39       25.07       24.66       24.06    

 HEAD WILL BE SAVED ON UNIT 1017 AT END OF TIME STEP   10, STRESS PERIOD   24


  VOLUME BUDGET FOR ENTIRE MODEL AT END OF TIME STEP   10, STRESS PERIOD  24
  ---------------------------------------------------------------------------------------------------

     CUMULATIVE VOLUME      L**3       RATES FOR THIS TIME STEP      L**3/T          PACKAGE NAME    
     ------------------                 ------------------------                     ----------------

           IN:                                      IN:
           ---                                      ---
              STO-SS =          41.9546                STO-SS =           0.0000     STORAGE         
              STO-SY =       27058.3843                STO-SY =           0.0000     STORAGE         
                 RCH =      112504.1553                   RCH =         238.3565     RCHA            
                 CHD =        2273.1987                   CHD =           0.0000     CHD             

            TOTAL IN =      141877.6930              TOTAL IN =         238.3565

          OUT:                                     OUT:
          ----                                     ----
              STO-SS =          29.5539                STO-SS =       5.6435E-02     STORAGE         
              STO-SY =       19261.3899                STO-SY =          35.5505     STORAGE         
                 RCH =           0.0000                   RCH =           0.0000     RCHA            
                 CHD =      122586.2937                   CHD =         202.7523     CHD             

           TOTAL OUT =      141877.2376             TOTAL OUT =         238.3592

            IN - OUT =           0.4554              IN - OUT =      -2.6499E-03

 PERCENT DISCREPANCY =           0.00     PERCENT DISCREPANCY =          -0.00




         TIME SUMMARY AT END OF TIME STEP   10 IN STRESS PERIOD   24
                    SECONDS     MINUTES      HOURS       DAYS        YEARS
                    -----------------------------------------------------------
   TIME STEP LENGTH 2.59200E+05  4320.0      72.000      3.0000     8.21355E-03
 STRESS PERIOD TIME 2.59200E+06  43200.      720.00      30.000     8.21355E-02
         TOTAL TIME 5.97024E+07 9.95040E+05  16584.      691.00      1.8919    

 OUTPUT CONTROL FOR STRESS PERIOD 25 IS REPEATED USING SETTINGS FROM A PREVIOUS STRESS PERIOD.


 STRESS PERIOD 25 IS TRANSIENT


                 RECHARGE =  0.2739730E-02
 UBDSV1 SAVING           STO-SS ON UNIT   1016 AT TIME STEP      1, STRESS PERIOD     25
 UBDSV1 SAVING           STO-SY ON UNIT   1016 AT TIME STEP      1, STRESS PERIOD     25
 UBDSV1 SAVING     FLOW-JA-FACE ON UNIT   1016 AT TIME STEP      1, STRESS PERIOD     25
 UBDSV06 SAVING              RCH IN MODEL TEST_TRANS       PACKAGE TEST_TRANS      CONNECTED TO MODEL TEST_TRANS       PACKAGE RCHA             ON UNIT   1016 AT TIME STEP      1, STRESS PERIOD     25
 UBDSV06 SAVING              CHD IN MODEL TEST_TRANS       PACKAGE TEST_TRANS      CONNECTED TO MODEL TEST_TRANS       PACKAGE CHD              ON UNIT   1016 AT TIME STEP      1, STRESS PERIOD     25
1
  HEAD IN LAYER   1 AT END OF TIME STEP   1 IN STRESS PERIOD   25
  ---------------------------------------------------------------------------

            1           2           3           4           5           6           7           8           9          10
           11          12          13          14          15          16          17          18          19          20
           21          22          23          24          25          26          27          28          29          30
 ........................................................................................................................
   1    27.88       27.87       27.86       27.84       27.82       27.80       27.77       27.73       27.69       27.64    
        27.59       27.53       27.46       27.39       27.30       27.22       27.12       27.01       26.90       26.77    
        26.63       26.48       26.31       26.12       25.91       25.68       25.42       25.11       24.75       24.32    
   2    27.88       27.87       27.86       27.84       27.82       27.80       27.77       27.73       27.69       27.64    
        27.59       27.53       27.46       27.39       27.30       27.22       27.12       27.01       26.90       26.77    
        26.63       26.48       26.31       26.12       25.91       25.68       25.42       25.11       24.75       24.32    
   3    27.88       27.87       27.86       27.84       27.82       27.80       27.77       27.73       27.69       27.64    
        27.59       27.53       27.46       27.39       27.30       27.22       27.12       27.01       26.90       26.77    
        26.63       26.48       26.31       26.12       25.91       25.68       25.42       25.11       24.75       24.32    
   4    27.88       27.87       27.86       27.84       27.82       27.80       27.77       27.73       27.69       27.64    
        27.59       27.53       27.46       27.39       27.30       27.22       27.12       27.01       26.90       26.77    
        26.63       26.48       26.31       26.12       25.91       25.68       25.42       25.11       24.75       24.32    
   5    27.88       27.87       27.86       27.84       27.82       27.80       27.77       27.73       27.69       27.64    
        27.59       27.53       27.46       27.39       27.30       27.22       27.12       27.01       26.90       26.77    
        26.63       26.48       26.31       26.12       25.91       25.68       25.42       25.11       24.75       24.32    
   6    27.88       27.87       27.86       27.84       27.82       27.80       27.77       27.73       27.69       27.64    
        27.59       27.53       27.46       27.39       27.30       27.22       27.12       27.01       26.90       26.77    
        26.63       26.48       26.31       26.12       25.91       25.68       25.42       25.11       24.75       24.32    
   7    27.88       27.87       27.86       27.84       27.82       27.80       27.77       27.73       27.69       27.64    
        27.59       27.53       27.46       27.39       27.30       27.22       27.12       27.01       26.90       26.77    
        26.63       26.48       26.31       26.12       25.91       25.68       25.42       25.11       24.75       24.32    
   8    27.88       27.87       27.86       27.84       27.82       27.80       27.77       27.73       27.69       27.64    
        27.59       27.53       27.46       27.39       27.30       27.22       27.12       27.01       26.90       26.77    
        26.63       26.48       26.31       26.12       25.91       25.68       25.42       25.11       24.75       24.32    
   9    27.88       27.87       27.86       27.84       27.82       27.80       27.77       27.73       27.69       27.64    
        27.59       27.53       27.46       27.39       27.30       27.22       27.12       27.01       26.90       26.77    
        26.63       26.48       26.31       26.12       25.91       25.68       25.42       25.11       24.75       24.32    
  10    27.88       27.87       27.86       27.84       27.82       27.80       27.77       27.73       27.69       27.64    
        27.59       27.53       27.46       27.39       27.30       27.22       27.12       27.01       26.90       26.77    
        26.63       26.48       26.31       26.12       25.91       25.68       25.42       25.11       24.75       24.32    
  11    27.88       27.87       27.86       27.84       27.82       27.80       27.77       27.73       27.69       27.64    
        27.59       27.53       27.46       27.39       27.30       27.22       27.12       27.01       26.90       26.77    
        26.63       26.48       26.31       26.12       25.91       25.68       25.42       25.11       24.75       24.32    
  12    27.88       27.87       27.86       27.84       27.82       27.80       27.77       27.73       27.69       27.64    
        27.59       27.53       27.46       27.39       27.30       27.22       27.12       27.01       26.90       26.77    
        26.63       26.48       26.31       26.12       25.91       25.68       25.42       25.11       24.75       24.32    
  13    27.88       27.87       27.86       27.84       27.82       27.80       27.77       27.73       27.69       27.64    
        27.59       27.53       27.46       27.39       27.30       27.22       27.12       27.01       26.90       26.77    
        26.63       26.48       26.31       26.12       25.91       25.68       25.42       25.11       24.75       24.32    
  14    27.88       27.87       27.86       27.84       27.82       27.80       27.77       27.73       27.69       27.64    
        27.59       27.53       27.46       27.39       27.30       27.22       27.12       27.01       26.90       26.77    
        26.63       26.48       26.31       26.12       25.91       25.68       25.42       25.11       24.75       24.32    
  15    27.88       27.87       27.86       27.84       27.82       27.80       27.77       27.73       27.69       27.64    
        27.59       27.53       27.46       27.39       27.30       27.22       27.12       27.01       26.90       26.77    
        26.63       26.48       26.31       26.12       25.91       25.68       25.42       25.11       24.75       24.32    
  16    27.88       27.87       27.86       27.84       27.82       27.80       27.77       27.73       27.69       27.64    
        27.59       27.53       27.46       27.39       27.30       27.22       27.12       27.01       26.90       26.77    
        26.63       26.48       26.31       26.12       25.91       25.68       25.42       25.11       24.75       24.32    
  17    27.88       27.87       27.86       27.84       27.82       27.80       27.77       27.73       27.69       27.64    
        27.59       27.53       27.46       27.39       27.30       27.22       27.12       27.01       26.90       26.77    
        26.63       26.48       26.31       26.12       25.91       25.68       25.42       25.11       24.75       24.32    
  18    27.88       27.87       27.86       27.84       27.82       27.80       27.77       27.73       27.69       27.64    
        27.59       27.53       27.46       27.39       27.30       27.22       27.12       27.01       26.90       26.77    
        26.63       26.48       26.31       26.12       25.91       25.68       25.42       25.11       24.75       24.32    
  19    27.88       27.87       27.86       27.84       27.82       27.80       27.77       27.73       27.69       27.64    
        27.59       27.53       27.46       27.39       27.30       27.22       27.12       27.01       26.90       26.77    
        26.63       26.48       26.31       26.12       25.91       25.68       25.42       25.11       24.75       24.32    
  20    27.88       27.87       27.86       27.84       27.82       27.80       27.77       27.73       27.69       27.64    
        27.59       27.53       27.46       27.39       27.30       27.22       27.12       27.01       26.90       26.77    
        26.63       26.48       26.31       26.12       25.91       25.68       25.42       25.11       24.75       24.32    
  21    27.88       27.87       27.86       27.84       27.82       27.80       27.77       27.73       27.69       27.64    
        27.59       27.53       27.46       27.39       27.30       27.22       27.12       27.01       26.90       26.77    
        26.63       26.48       26.31       26.12       25.91       25.68       25.42       25.11       24.75       24.32    
  22    27.88       27.87       27.86       27.84       27.82       27.80       27.77       27.73       27.69       27.64    
        27.59       27.53       27.46       27.39       27.30       27.22       27.12       27.01       26.90       26.77    
        26.63       26.48       26.31       26.12       25.91       25.68       25.42       25.11       24.75       24.32    
  23    27.88       27.87       27.86       27.84       27.82       27.80       27.77       27.73       27.69       27.64    
        27.59       27.53       27.46       27.39       27.30       27.22       27.12       27.01       26.90       26.77    
        26.63       26.48       26.31       26.12       25.91       25.68       25.42       25.11       24.75       24.32    
  24    27.88       27.87       27.86       27.84       27.82       27.80       27.77       27.73       27.69       27.64    
        27.59       27.53       27.46       27.39       27.30       27.22       27.12       27.01       26.90       26.77    
        26.63       26.48       26.31       26.12       25.91       25.68       25.42       25.11       24.75       24.32    
  25    27.88       27.87       27.86       27.84       27.82       27.80       27.77       27.73       27.69       27.64    
        27.59       27.53       27.46       27.39       27.30       27.22       27.12       27.01       26.90       26.77    
        26.63       26.48       26.31       26.12       25.91       25.68       25.42       25.11       24.75       24.32    
  26    27.88       27.87       27.86       27.84       27.82       27.80       27.77       27.73       27.69       27.64    
        27.59       27.53       27.46       27.39       27.30       27.22       27.12       27.01       26.90       26.77    
        26.63       26.48       26.31       26.12       25.91       25.68       25.42       25.11       24.75       24.32    
  27    27.88       27.87       27.86       27.84       27.82       27.80       27.77       27.73       27.69       27.64    
        27.59       27.53       27.46       27.39       27.30       27.22       27.12       27.01       26.90       26.77    
        26.63       26.48       26.31       26.12       25.91       25.68       25.42       25.11       24.75       24.32    
  28    27.88       27.87       27.86       27.84       27.82       27.80       27.77       27.73       27.69       27.64    
        27.59       27.53       27.46       27.39       27.30       27.22       27.12       27.01       26.90       26.77    
        26.63       26.48       26.31       26.12       25.91       25.68       25.42       25.11       24.75       24.32    
  29    27.88       27.87       27.86       27.84       27.82       27.80       27.77       27.73       27.69       27.64    
        27.59       27.53       27.46       27.39       27.30       27.22       27.12       27.01       26.90       26.77    
        26.63       26.48       26.31       26.12       25.91       25.68       25.42       25.11       24.75       24.32    
  30    27.88       27.87       27.86       27.84       27.82       27.80       27.77       27.73       27.69       27.64    
        27.59       27.53       27.46       27.39       27.30       27.22       27.12       27.01       26.90       26.77    
        26.63       26.48       26.31       26.12       25.91       25.68       25.42       25.11       24.75       24.32    

 HEAD WILL BE SAVED ON UNIT 1017 AT END OF TIME STEP    1, STRESS PERIOD   25



         TIME SUMMARY AT END OF TIME STEP    1 IN STRESS PERIOD   25
                    SECONDS     MINUTES      HOURS       DAYS        YEARS
                    -----------------------------------------------------------
   TIME STEP LENGTH 2.59200E+05  4320.0      72.000      3.0000     8.21355E-03
 STRESS PERIOD TIME 2.59200E+05  4320.0      72.000      3.0000     8.21355E-03
         TOTAL TIME 5.99616E+07 9.99360E+05  16656.      694.00      1.9001    
 UBDSV1 SAVING           STO-SS ON UNIT   1016 AT TIME STEP      2, STRESS PERIOD     25
 UBDSV1 SAVING           STO-SY ON UNIT   1016 AT TIME STEP      2, STRESS PERIOD     25
 UBDSV1 SAVING     FLOW-JA-FACE ON UNIT   1016 AT TIME STEP      2, STRESS PERIOD     25
 UBDSV06 SAVING              RCH IN MODEL TEST_TRANS       PACKAGE TEST_TRANS      CONNECTED TO MODEL TEST_TRANS       PACKAGE RCHA             ON UNIT   1016 AT TIME STEP      2, STRESS PERIOD     25
 UBDSV06 SAVING              CHD IN MODEL TEST_TRANS       PACKAGE TEST_TRANS      CONNECTED TO MODEL TEST_TRANS       PACKAGE CHD              ON UNIT   1016 AT TIME STEP      2, STRESS PERIOD     25

 HEAD WILL BE SAVED ON UNIT 1017 AT END OF TIME STEP    2, STRESS PERIOD   25
 UBDSV1 SAVING           STO-SS ON UNIT   1016 AT TIME STEP      3, STRESS PERIOD     25
 UBDSV1 SAVING           STO-SY ON UNIT   1016 AT TIME STEP      3, STRESS PERIOD     25
 UBDSV1 SAVING     FLOW-JA-FACE ON UNIT   1016 AT TIME STEP      3, STRESS PERIOD     25
 UBDSV06 SAVING              RCH IN MODEL TEST_TRANS       PACKAGE TEST_TRANS      CONNECTED TO MODEL TEST_TRANS       PACKAGE RCHA             ON UNIT   1016 AT TIME STEP      3, STRESS PERIOD     25
 UBDSV06 SAVING              CHD IN MODEL TEST_TRANS       PACKAGE TEST_TRANS      CONNECTED TO MODEL TEST_TRANS       PACKAGE CHD              ON UNIT   1016 AT TIME STEP      3, STRESS PERIOD     25

 HEAD WILL BE SAVED ON UNIT 1017 AT END OF TIME STEP    3, STRESS PERIOD   25
 UBDSV1 SAVING           STO-SS ON UNIT   1016 AT TIME STEP      4, STRESS PERIOD     25
 UBDSV1 SAVING           STO-SY ON UNIT   1016 AT TIME STEP      4, STRESS PERIOD     25
 UBDSV1 SAVING     FLOW-JA-FACE ON UNIT   1016 AT TIME STEP      4, STRESS PERIOD     25
 UBDSV06 SAVING              RCH IN MODEL TEST_TRANS       PACKAGE TEST_TRANS      CONNECTED TO MODEL TEST_TRANS       PACKAGE RCHA             ON UNIT   1016 AT TIME STEP      4, STRESS PERIOD     25
 UBDSV06 SAVING              CHD IN MODEL TEST_TRANS       PACKAGE TEST_TRANS      CONNECTED TO MODEL TEST_TRANS       PACKAGE CHD              ON UNIT   1016 AT TIME STEP      4, STRESS PERIOD     25

 HEAD WILL BE SAVED ON UNIT 1017 AT END OF TIME STEP    4, STRESS PERIOD   25
 UBDSV1 SAVING           STO-SS ON UNIT   1016 AT TIME STEP      5, STRESS PERIOD     25
 UBDSV1 SAVING           STO-SY ON UNIT   1016 AT TIME STEP      5, STRESS PERIOD     25
 UBDSV1 SAVING     FLOW-JA-FACE ON UNIT   1016 AT TIME STEP      5, STRESS PERIOD     25
 UBDSV06 SAVING              RCH IN MODEL TEST_TRANS       PACKAGE TEST_TRANS      CONNECTED TO MODEL TEST_TRANS       PACKAGE RCHA             ON UNIT   1016 AT TIME STEP      5, STRESS PERIOD     25
 UBDSV06 SAVING              CHD IN MODEL TEST_TRANS       PACKAGE TEST_TRANS      CONNECTED TO MODEL TEST_TRANS       PACKAGE CHD              ON UNIT   1016 AT TIME STEP      5, STRESS PERIOD     25

 HEAD WILL BE SAVED ON UNIT 1017 AT END OF TIME STEP    5, STRESS PERIOD   25
 UBDSV1 SAVING           STO-SS ON UNIT   1016 AT TIME STEP      6, STRESS PERIOD     25
 UBDSV1 SAVING           STO-SY ON UNIT   1016 AT TIME STEP      6, STRESS PERIOD     25
 UBDSV1 SAVING     FLOW-JA-FACE ON UNIT   1016 AT TIME STEP      6, STRESS PERIOD     25
 UBDSV06 SAVING              RCH IN MODEL TEST_TRANS       PACKAGE TEST_TRANS      CONNECTED TO MODEL TEST_TRANS       PACKAGE RCHA             ON UNIT   1016 AT TIME STEP      6, STRESS PERIOD     25
 UBDSV06 SAVING              CHD IN MODEL TEST_TRANS       PACKAGE TEST_TRANS      CONNECTED TO MODEL TEST_TRANS       PACKAGE CHD              ON UNIT   1016 AT TIME STEP      6, STRESS PERIOD     25

 HEAD WILL BE SAVED ON UNIT 1017 AT END OF TIME STEP    6, STRESS PERIOD   25
 UBDSV1 SAVING           STO-SS ON UNIT   1016 AT TIME STEP      7, STRESS PERIOD     25
 UBDSV1 SAVING           STO-SY ON UNIT   1016 AT TIME STEP      7, STRESS PERIOD     25
 UBDSV1 SAVING     FLOW-JA-FACE ON UNIT   1016 AT TIME STEP      7, STRESS PERIOD     25
 UBDSV06 SAVING              RCH IN MODEL TEST_TRANS       PACKAGE TEST_TRANS      CONNECTED TO MODEL TEST_TRANS       PACKAGE RCHA             ON UNIT   1016 AT TIME STEP      7, STRESS PERIOD     25
 UBDSV06 SAVING              CHD IN MODEL TEST_TRANS       PACKAGE TEST_TRANS      CONNECTED TO MODEL TEST_TRANS       PACKAGE CHD              ON UNIT   1016 AT TIME STEP      7, STRESS PERIOD     25

 HEAD WILL BE SAVED ON UNIT 1017 AT END OF TIME STEP    7, STRESS PERIOD   25
 UBDSV1 SAVING           STO-SS ON UNIT   1016 AT TIME STEP      8, STRESS PERIOD     25
 UBDSV1 SAVING           STO-SY ON UNIT   1016 AT TIME STEP      8, STRESS PERIOD     25
 UBDSV1 SAVING     FLOW-JA-FACE ON UNIT   1016 AT TIME STEP      8, STRESS PERIOD     25
 UBDSV06 SAVING              RCH IN MODEL TEST_TRANS       PACKAGE TEST_TRANS      CONNECTED TO MODEL TEST_TRANS       PACKAGE RCHA             ON UNIT   1016 AT TIME STEP      8, STRESS PERIOD     25
 UBDSV06 SAVING              CHD IN MODEL TEST_TRANS       PACKAGE TEST_TRANS      CONNECTED TO MODEL TEST_TRANS       PACKAGE CHD              ON UNIT   1016 AT TIME STEP      8, STRESS PERIOD     25

 HEAD WILL BE SAVED ON UNIT 1017 AT END OF TIME STEP    8, STRESS PERIOD   25
 UBDSV1 SAVING           STO-SS ON UNIT   1016 AT TIME STEP      9, STRESS PERIOD     25
 UBDSV1 SAVING           STO-SY ON UNIT   1016 AT TIME STEP      9, STRESS PERIOD     25
 UBDSV1 SAVING     FLOW-JA-FACE ON UNIT   1016 AT TIME STEP      9, STRESS PERIOD     25
 UBDSV06 SAVING              RCH IN MODEL TEST_TRANS       PACKAGE TEST_TRANS      CONNECTED TO MODEL TEST_TRANS       PACKAGE RCHA             ON UNIT   1016 AT TIME STEP      9, STRESS PERIOD     25
 UBDSV06 SAVING              CHD IN MODEL TEST_TRANS       PACKAGE TEST_TRANS      CONNECTED TO MODEL TEST_TRANS       PACKAGE CHD              ON UNIT   1016 AT TIME STEP      9, STRESS PERIOD     25

 HEAD WILL BE SAVED ON UNIT 1017 AT END OF TIME STEP    9, STRESS PERIOD   25
 UBDSV1 SAVING           STO-SS ON UNIT   1016 AT TIME STEP     10, STRESS PERIOD     25
 UBDSV1 SAVING           STO-SY ON UNIT   1016 AT TIME STEP     10, STRESS PERIOD     25
 UBDSV1 SAVING     FLOW-JA-FACE ON UNIT   1016 AT TIME STEP     10, STRESS PERIOD     25
 UBDSV06 SAVING              RCH IN MODEL TEST_TRANS       PACKAGE TEST_TRANS      CONNECTED TO MODEL TEST_TRANS       PACKAGE RCHA             ON UNIT   1016 AT TIME STEP     10, STRESS PERIOD     25
 UBDSV06 SAVING              CHD IN MODEL TEST_TRANS       PACKAGE TEST_TRANS      CONNECTED TO MODEL TEST_TRANS       PACKAGE CHD              ON UNIT   1016 AT TIME STEP     10, STRESS PERIOD     25
1
  HEAD IN LAYER   1 AT END OF TIME STEP  10 IN STRESS PERIOD   25
  ---------------------------------------------------------------------------

            1           2           3           4           5           6           7           8           9          10
           11          12          13          14          15          16          17          18          19          20
           21          22          23          24          25          26          27          28          29          30
 ........................................................................................................................
   1    27.95       27.95       27.93       27.92       27.90       27.87       27.84       27.80       27.76       27.71    
        27.66       27.59       27.53       27.45       27.37       27.28       27.18       27.07       26.96       26.83    
        26.69       26.54       26.37       26.19       25.99       25.76       25.50       25.20       24.82       24.32    
   2    27.95       27.95       27.93       27.92       27.90       27.87       27.84       27.80       27.76       27.71    
        27.66       27.59       27.53       27.45       27.37       27.28       27.18       27.07       26.96       26.83    
        26.69       26.54       26.37       26.19       25.99       25.76       25.50       25.20       24.82       24.32    
   3    27.95       27.95       27.93       27.92       27.90       27.87       27.84       27.80       27.76       27.71    
        27.66       27.59       27.53       27.45       27.37       27.28       27.18       27.07       26.96       26.83    
        26.69       26.54       26.37       26.19       25.99       25.76       25.50       25.20       24.82       24.32    
   4    27.95       27.95       27.93       27.92       27.90       27.87       27.84       27.80       27.76       27.71    
        27.66       27.59       27.53       27.45       27.37       27.28       27.18       27.07       26.96       26.83    
        26.69       26.54       26.37       26.19       25.99       25.76       25.50       25.20       24.82       24.32    
   5    27.95       27.95       27.93       27.92       27.90       27.87       27.84       27.80       27.76       27.71    
        27.66       27.59       27.53       27.45       27.37       27.28       27.18       27.07       26.96       26.83    
        26.69       26.54       26.37       26.19       25.99       25.76       25.50       25.20       24.82       24.32    
   6    27.95       27.95       27.93       27.92       27.90       27.87       27.84       27.80       27.76       27.71    
        27.66       27.59       27.53       27.45       27.37       27.28       27.18       27.07       26.96       26.83    
        26.69       26.54       26.37       26.19       25.99       25.76       25.50       25.20       24.82       24.32    
   7    27.95       27.95       27.93       27.92       27.90       27.87       27.84       27.80       27.76       27.71    
        27.66       27.59       27.53       27.45       27.37       27.28       27.18       27.07       26.96       26.83    
        26.69       26.54       26.37       26.19       25.99       25.76       25.50       25.20       24.82       24.32    
   8    27.95       27.95       27.93       27.92       27.90       27.87       27.84       27.80       27.76       27.71    
        27.66       27.59       27.53       27.45       27.37       27.28       27.18       27.07       26.96       26.83    
        26.69       26.54       26.37       26.19       25.99       25.76       25.50       25.20       24.82       24.32    
   9    27.95       27.95       27.93       27.92       27.90       27.87       27.84       27.80       27.76       27.71    
        27.66       27.59       27.53       27.45       27.37       27.28       27.18       27.07       26.96       26.83    
        26.69       26.54       26.37       26.19       25.99       25.76       25.50       25.20       24.82       24.32    
  10    27.95       27.95       27.93       27.92       27.90       27.87       27.84       27.80       27.76       27.71    
        27.66       27.59       27.53       27.45       27.37       27.28       27.18       27.07       26.96       26.83    
        26.69       26.54       26.37       26.19       25.99       25.76       25.50       25.20       24.82       24.32    
  11    27.95       27.95       27.93       27.92       27.90       27.87       27.84       27.80       27.76       27.71    
        27.66       27.59       27.53       27.45       27.37       27.28       27.18       27.07       26.96       26.83    
        26.69       26.54       26.37       26.19       25.99       25.76       25.50       25.20       24.82       24.32    
  12    27.95       27.95       27.93       27.92       27.90       27.87       27.84       27.80       27.76       27.71    
        27.66       27.59       27.53       27.45       27.37       27.28       27.18       27.07       26.96       26.83    
        26.69       26.54       26.37       26.19       25.99       25.76       25.50       25.20       24.82       24.32    
  13    27.95       27.95       27.93       27.92       27.90       27.87       27.84       27.80       27.76       27.71    
        27.66       27.59       27.53       27.45       27.37       27.28       27.18       27.07       26.96       26.83    
        26.69       26.54       26.37       26.19       25.99       25.76       25.50       25.20       24.82       24.32    
  14    27.95       27.95       27.93       27.92       27.90       27.87       27.84       27.80       27.76       27.71    
        27.66       27.59       27.53       27.45       27.37       27.28       27.18       27.07       26.96       26.83    
        26.69       26.54       26.37       26.19       25.99       25.76       25.50       25.20       24.82       24.32    
  15    27.95       27.95       27.93       27.92       27.90       27.87       27.84       27.80       27.76       27.71    
        27.66       27.59       27.53       27.45       27.37       27.28       27.18       27.07       26.96       26.83    
        26.69       26.54       26.37       26.19       25.99       25.76       25.50       25.20       24.82       24.32    
  16    27.95       27.95       27.93       27.92       27.90       27.87       27.84       27.80       27.76       27.71    
        27.66       27.59       27.53       27.45       27.37       27.28       27.18       27.07       26.96       26.83    
        26.69       26.54       26.37       26.19       25.99       25.76       25.50       25.20       24.82       24.32    
  17    27.95       27.95       27.93       27.92       27.90       27.87       27.84       27.80       27.76       27.71    
        27.66       27.59       27.53       27.45       27.37       27.28       27.18       27.07       26.96       26.83    
        26.69       26.54       26.37       26.19       25.99       25.76       25.50       25.20       24.82       24.32    
  18    27.95       27.95       27.93       27.92       27.90       27.87       27.84       27.80       27.76       27.71    
        27.66       27.59       27.53       27.45       27.37       27.28       27.18       27.07       26.96       26.83    
        26.69       26.54       26.37       26.19       25.99       25.76       25.50       25.20       24.82       24.32    
  19    27.95       27.95       27.93       27.92       27.90       27.87       27.84       27.80       27.76       27.71    
        27.66       27.59       27.53       27.45       27.37       27.28       27.18       27.07       26.96       26.83    
        26.69       26.54       26.37       26.19       25.99       25.76       25.50       25.20       24.82       24.32    
  20    27.95       27.95       27.93       27.92       27.90       27.87       27.84       27.80       27.76       27.71    
        27.66       27.59       27.53       27.45       27.37       27.28       27.18       27.07       26.96       26.83    
        26.69       26.54       26.37       26.19       25.99       25.76       25.50       25.20       24.82       24.32    
  21    27.95       27.95       27.93       27.92       27.90       27.87       27.84       27.80       27.76       27.71    
        27.66       27.59       27.53       27.45       27.37       27.28       27.18       27.07       26.96       26.83    
        26.69       26.54       26.37       26.19       25.99       25.76       25.50       25.20       24.82       24.32    
  22    27.95       27.95       27.93       27.92       27.90       27.87       27.84       27.80       27.76       27.71    
        27.66       27.59       27.53       27.45       27.37       27.28       27.18       27.07       26.96       26.83    
        26.69       26.54       26.37       26.19       25.99       25.76       25.50       25.20       24.82       24.32    
  23    27.95       27.95       27.93       27.92       27.90       27.87       27.84       27.80       27.76       27.71    
        27.66       27.59       27.53       27.45       27.37       27.28       27.18       27.07       26.96       26.83    
        26.69       26.54       26.37       26.19       25.99       25.76       25.50       25.20       24.82       24.32    
  24    27.95       27.95       27.93       27.92       27.90       27.87       27.84       27.80       27.76       27.71    
        27.66       27.59       27.53       27.45       27.37       27.28       27.18       27.07       26.96       26.83    
        26.69       26.54       26.37       26.19       25.99       25.76       25.50       25.20       24.82       24.32    
  25    27.95       27.95       27.93       27.92       27.90       27.87       27.84       27.80       27.76       27.71    
        27.66       27.59       27.53       27.45       27.37       27.28       27.18       27.07       26.96       26.83    
        26.69       26.54       26.37       26.19       25.99       25.76       25.50       25.20       24.82       24.32    
  26    27.95       27.95       27.93       27.92       27.90       27.87       27.84       27.80       27.76       27.71    
        27.66       27.59       27.53       27.45       27.37       27.28       27.18       27.07       26.96       26.83    
        26.69       26.54       26.37       26.19       25.99       25.76       25.50       25.20       24.82       24.32    
  27    27.95       27.95       27.93       27.92       27.90       27.87       27.84       27.80       27.76       27.71    
        27.66       27.59       27.53       27.45       27.37       27.28       27.18       27.07       26.96       26.83    
        26.69       26.54       26.37       26.19       25.99       25.76       25.50       25.20       24.82       24.32    
  28    27.95       27.95       27.93       27.92       27.90       27.87       27.84       27.80       27.76       27.71    
        27.66       27.59       27.53       27.45       27.37       27.28       27.18       27.07       26.96       26.83    
        26.69       26.54       26.37       26.19       25.99       25.76       25.50       25.20       24.82       24.32    
  29    27.95       27.95       27.93       27.92       27.90       27.87       27.84       27.80       27.76       27.71    
        27.66       27.59       27.53       27.45       27.37       27.28       27.18       27.07       26.96       26.83    
        26.69       26.54       26.37       26.19       25.99       25.76       25.50       25.20       24.82       24.32    
  30    27.95       27.95       27.93       27.92       27.90       27.87       27.84       27.80       27.76       27.71    
        27.66       27.59       27.53       27.45       27.37       27.28       27.18       27.07       26.96       26.83    
        26.69       26.54       26.37       26.19       25.99       25.76       25.50       25.20       24.82       24.32    

 HEAD WILL BE SAVED ON UNIT 1017 AT END OF TIME STEP   10, STRESS PERIOD   25


  VOLUME BUDGET FOR ENTIRE MODEL AT END OF TIME STEP   10, STRESS PERIOD  25
  ---------------------------------------------------------------------------------------------------

     CUMULATIVE VOLUME      L**3       RATES FOR THIS TIME STEP      L**3/T          PACKAGE NAME    
     ------------------                 ------------------------                     ----------------

           IN:                                      IN:
           ---                                      ---
              STO-SS =          41.9546                STO-SS =           0.0000     STORAGE         
              STO-SY =       27058.3843                STO-SY =           0.0000     STORAGE         
                 RCH =      119654.8506                   RCH =         238.3565     RCHA            
                 CHD =        2273.1987                   CHD =           0.0000     CHD             

            TOTAL IN =      149028.3883              TOTAL IN =         238.3565

          OUT:                                     OUT:
          ----                                     ----
              STO-SS =          31.7501                STO-SS =       6.0869E-02     STORAGE         
              STO-SY =       20689.2999                STO-SY =          38.7160     STORAGE         
                 RCH =           0.0000                   RCH =           0.0000     RCHA            
                 CHD =      128306.9945                   CHD =         199.5846     CHD             

           TOTAL OUT =      149028.0445             TOTAL OUT =         238.3615

            IN - OUT =           0.3438              IN - OUT =      -5.0198E-03

 PERCENT DISCREPANCY =           0.00     PERCENT DISCREPANCY =          -0.00




         TIME SUMMARY AT END OF TIME STEP   10 IN STRESS PERIOD   25
                    SECONDS     MINUTES      HOURS       DAYS        YEARS
                    -----------------------------------------------------------
   TIME STEP LENGTH 2.59200E+05  4320.0      72.000      3.0000     8.21355E-03
 STRESS PERIOD TIME 2.59200E+06  43200.      720.00      30.000     8.21355E-02
         TOTAL TIME 6.22944E+07 1.03824E+06  17304.      721.00      1.9740    

 OUTPUT CONTROL FOR STRESS PERIOD 26 IS REPEATED USING SETTINGS FROM A PREVIOUS STRESS PERIOD.


 STRESS PERIOD 26 IS TRANSIENT


                 RECHARGE =  0.3287670E-02
 UBDSV1 SAVING           STO-SS ON UNIT   1016 AT TIME STEP      1, STRESS PERIOD     26
 UBDSV1 SAVING           STO-SY ON UNIT   1016 AT TIME STEP      1, STRESS PERIOD     26
 UBDSV1 SAVING     FLOW-JA-FACE ON UNIT   1016 AT TIME STEP      1, STRESS PERIOD     26
 UBDSV06 SAVING              RCH IN MODEL TEST_TRANS       PACKAGE TEST_TRANS      CONNECTED TO MODEL TEST_TRANS       PACKAGE RCHA             ON UNIT   1016 AT TIME STEP      1, STRESS PERIOD     26
 UBDSV06 SAVING              CHD IN MODEL TEST_TRANS       PACKAGE TEST_TRANS      CONNECTED TO MODEL TEST_TRANS       PACKAGE CHD              ON UNIT   1016 AT TIME STEP      1, STRESS PERIOD     26
1
  HEAD IN LAYER   1 AT END OF TIME STEP   1 IN STRESS PERIOD   26
  ---------------------------------------------------------------------------

            1           2           3           4           5           6           7           8           9          10
           11          12          13          14          15          16          17          18          19          20
           21          22          23          24          25          26          27          28          29          30
 ........................................................................................................................
   1    27.97       27.96       27.95       27.93       27.91       27.89       27.86       27.82       27.77       27.73    
        27.67       27.61       27.54       27.47       27.38       27.29       27.20       27.09       26.97       26.85    
        26.71       26.56       26.39       26.21       26.01       25.78       25.53       25.24       24.90       24.49    
   2    27.97       27.96       27.95       27.93       27.91       27.89       27.86       27.82       27.77       27.73    
        27.67       27.61       27.54       27.47       27.38       27.29       27.20       27.09       26.97       26.85    
        26.71       26.56       26.39       26.21       26.01       25.78       25.53       25.24       24.90       24.49    
   3    27.97       27.96       27.95       27.93       27.91       27.89       27.86       27.82       27.77       27.73    
        27.67       27.61       27.54       27.47       27.38       27.29       27.20       27.09       26.97       26.85    
        26.71       26.56       26.39       26.21       26.01       25.78       25.53       25.24       24.90       24.49    
   4    27.97       27.96       27.95       27.93       27.91       27.89       27.86       27.82       27.77       27.73    
        27.67       27.61       27.54       27.47       27.38       27.29       27.20       27.09       26.97       26.85    
        26.71       26.56       26.39       26.21       26.01       25.78       25.53       25.24       24.90       24.49    
   5    27.97       27.96       27.95       27.93       27.91       27.89       27.86       27.82       27.77       27.73    
        27.67       27.61       27.54       27.47       27.38       27.29       27.20       27.09       26.97       26.85    
        26.71       26.56       26.39       26.21       26.01       25.78       25.53       25.24       24.90       24.49    
   6    27.97       27.96       27.95       27.93       27.91       27.89       27.86       27.82       27.77       27.73    
        27.67       27.61       27.54       27.47       27.38       27.29       27.20       27.09       26.97       26.85    
        26.71       26.56       26.39       26.21       26.01       25.78       25.53       25.24       24.90       24.49    
   7    27.97       27.96       27.95       27.93       27.91       27.89       27.86       27.82       27.77       27.73    
        27.67       27.61       27.54       27.47       27.38       27.29       27.20       27.09       26.97       26.85    
        26.71       26.56       26.39       26.21       26.01       25.78       25.53       25.24       24.90       24.49    
   8    27.97       27.96       27.95       27.93       27.91       27.89       27.86       27.82       27.77       27.73    
        27.67       27.61       27.54       27.47       27.38       27.29       27.20       27.09       26.97       26.85    
        26.71       26.56       26.39       26.21       26.01       25.78       25.53       25.24       24.90       24.49    
   9    27.97       27.96       27.95       27.93       27.91       27.89       27.86       27.82       27.77       27.73    
        27.67       27.61       27.54       27.47       27.38       27.29       27.20       27.09       26.97       26.85    
        26.71       26.56       26.39       26.21       26.01       25.78       25.53       25.24       24.90       24.49    
  10    27.97       27.96       27.95       27.93       27.91       27.89       27.86       27.82       27.77       27.73    
        27.67       27.61       27.54       27.47       27.38       27.29       27.20       27.09       26.97       26.85    
        26.71       26.56       26.39       26.21       26.01       25.78       25.53       25.24       24.90       24.49    
  11    27.97       27.96       27.95       27.93       27.91       27.89       27.86       27.82       27.77       27.73    
        27.67       27.61       27.54       27.47       27.38       27.29       27.20       27.09       26.97       26.85    
        26.71       26.56       26.39       26.21       26.01       25.78       25.53       25.24       24.90       24.49    
  12    27.97       27.96       27.95       27.93       27.91       27.89       27.86       27.82       27.77       27.73    
        27.67       27.61       27.54       27.47       27.38       27.29       27.20       27.09       26.97       26.85    
        26.71       26.56       26.39       26.21       26.01       25.78       25.53       25.24       24.90       24.49    
  13    27.97       27.96       27.95       27.93       27.91       27.89       27.86       27.82       27.77       27.73    
        27.67       27.61       27.54       27.47       27.38       27.29       27.20       27.09       26.97       26.85    
        26.71       26.56       26.39       26.21       26.01       25.78       25.53       25.24       24.90       24.49    
  14    27.97       27.96       27.95       27.93       27.91       27.89       27.86       27.82       27.77       27.73    
        27.67       27.61       27.54       27.47       27.38       27.29       27.20       27.09       26.97       26.85    
        26.71       26.56       26.39       26.21       26.01       25.78       25.53       25.24       24.90       24.49    
  15    27.97       27.96       27.95       27.93       27.91       27.89       27.86       27.82       27.77       27.73    
        27.67       27.61       27.54       27.47       27.38       27.29       27.20       27.09       26.97       26.85    
        26.71       26.56       26.39       26.21       26.01       25.78       25.53       25.24       24.90       24.49    
  16    27.97       27.96       27.95       27.93       27.91       27.89       27.86       27.82       27.77       27.73    
        27.67       27.61       27.54       27.47       27.38       27.29       27.20       27.09       26.97       26.85    
        26.71       26.56       26.39       26.21       26.01       25.78       25.53       25.24       24.90       24.49    
  17    27.97       27.96       27.95       27.93       27.91       27.89       27.86       27.82       27.77       27.73    
        27.67       27.61       27.54       27.47       27.38       27.29       27.20       27.09       26.97       26.85    
        26.71       26.56       26.39       26.21       26.01       25.78       25.53       25.24       24.90       24.49    
  18    27.97       27.96       27.95       27.93       27.91       27.89       27.86       27.82       27.77       27.73    
        27.67       27.61       27.54       27.47       27.38       27.29       27.20       27.09       26.97       26.85    
        26.71       26.56       26.39       26.21       26.01       25.78       25.53       25.24       24.90       24.49    
  19    27.97       27.96       27.95       27.93       27.91       27.89       27.86       27.82       27.77       27.73    
        27.67       27.61       27.54       27.47       27.38       27.29       27.20       27.09       26.97       26.85    
        26.71       26.56       26.39       26.21       26.01       25.78       25.53       25.24       24.90       24.49    
  20    27.97       27.96       27.95       27.93       27.91       27.89       27.86       27.82       27.77       27.73    
        27.67       27.61       27.54       27.47       27.38       27.29       27.20       27.09       26.97       26.85    
        26.71       26.56       26.39       26.21       26.01       25.78       25.53       25.24       24.90       24.49    
  21    27.97       27.96       27.95       27.93       27.91       27.89       27.86       27.82       27.77       27.73    
        27.67       27.61       27.54       27.47       27.38       27.29       27.20       27.09       26.97       26.85    
        26.71       26.56       26.39       26.21       26.01       25.78       25.53       25.24       24.90       24.49    
  22    27.97       27.96       27.95       27.93       27.91       27.89       27.86       27.82       27.77       27.73    
        27.67       27.61       27.54       27.47       27.38       27.29       27.20       27.09       26.97       26.85    
        26.71       26.56       26.39       26.21       26.01       25.78       25.53       25.24       24.90       24.49    
  23    27.97       27.96       27.95       27.93       27.91       27.89       27.86       27.82       27.77       27.73    
        27.67       27.61       27.54       27.47       27.38       27.29       27.20       27.09       26.97       26.85    
        26.71       26.56       26.39       26.21       26.01       25.78       25.53       25.24       24.90       24.49    
  24    27.97       27.96       27.95       27.93       27.91       27.89       27.86       27.82       27.77       27.73    
        27.67       27.61       27.54       27.47       27.38       27.29       27.20       27.09       26.97       26.85    
        26.71       26.56       26.39       26.21       26.01       25.78       25.53       25.24       24.90       24.49    
  25    27.97       27.96       27.95       27.93       27.91       27.89       27.86       27.82       27.77       27.73    
        27.67       27.61       27.54       27.47       27.38       27.29       27.20       27.09       26.97       26.85    
        26.71       26.56       26.39       26.21       26.01       25.78       25.53       25.24       24.90       24.49    
  26    27.97       27.96       27.95       27.93       27.91       27.89       27.86       27.82       27.77       27.73    
        27.67       27.61       27.54       27.47       27.38       27.29       27.20       27.09       26.97       26.85    
        26.71       26.56       26.39       26.21       26.01       25.78       25.53       25.24       24.90       24.49    
  27    27.97       27.96       27.95       27.93       27.91       27.89       27.86       27.82       27.77       27.73    
        27.67       27.61       27.54       27.47       27.38       27.29       27.20       27.09       26.97       26.85    
        26.71       26.56       26.39       26.21       26.01       25.78       25.53       25.24       24.90       24.49    
  28    27.97       27.96       27.95       27.93       27.91       27.89       27.86       27.82       27.77       27.73    
        27.67       27.61       27.54       27.47       27.38       27.29       27.20       27.09       26.97       26.85    
        26.71       26.56       26.39       26.21       26.01       25.78       25.53       25.24       24.90       24.49    
  29    27.97       27.96       27.95       27.93       27.91       27.89       27.86       27.82       27.77       27.73    
        27.67       27.61       27.54       27.47       27.38       27.29       27.20       27.09       26.97       26.85    
        26.71       26.56       26.39       26.21       26.01       25.78       25.53       25.24       24.90       24.49    
  30    27.97       27.96       27.95       27.93       27.91       27.89       27.86       27.82       27.77       27.73    
        27.67       27.61       27.54       27.47       27.38       27.29       27.20       27.09       26.97       26.85    
        26.71       26.56       26.39       26.21       26.01       25.78       25.53       25.24       24.90       24.49    

 HEAD WILL BE SAVED ON UNIT 1017 AT END OF TIME STEP    1, STRESS PERIOD   26



         TIME SUMMARY AT END OF TIME STEP    1 IN STRESS PERIOD   26
                    SECONDS     MINUTES      HOURS       DAYS        YEARS
                    -----------------------------------------------------------
   TIME STEP LENGTH 2.59200E+05  4320.0      72.000      3.0000     8.21355E-03
 STRESS PERIOD TIME 2.59200E+05  4320.0      72.000      3.0000     8.21355E-03
         TOTAL TIME 6.25536E+07 1.04256E+06  17376.      724.00      1.9822    
 UBDSV1 SAVING           STO-SS ON UNIT   1016 AT TIME STEP      2, STRESS PERIOD     26
 UBDSV1 SAVING           STO-SY ON UNIT   1016 AT TIME STEP      2, STRESS PERIOD     26
 UBDSV1 SAVING     FLOW-JA-FACE ON UNIT   1016 AT TIME STEP      2, STRESS PERIOD     26
 UBDSV06 SAVING              RCH IN MODEL TEST_TRANS       PACKAGE TEST_TRANS      CONNECTED TO MODEL TEST_TRANS       PACKAGE RCHA             ON UNIT   1016 AT TIME STEP      2, STRESS PERIOD     26
 UBDSV06 SAVING              CHD IN MODEL TEST_TRANS       PACKAGE TEST_TRANS      CONNECTED TO MODEL TEST_TRANS       PACKAGE CHD              ON UNIT   1016 AT TIME STEP      2, STRESS PERIOD     26

 HEAD WILL BE SAVED ON UNIT 1017 AT END OF TIME STEP    2, STRESS PERIOD   26
 UBDSV1 SAVING           STO-SS ON UNIT   1016 AT TIME STEP      3, STRESS PERIOD     26
 UBDSV1 SAVING           STO-SY ON UNIT   1016 AT TIME STEP      3, STRESS PERIOD     26
 UBDSV1 SAVING     FLOW-JA-FACE ON UNIT   1016 AT TIME STEP      3, STRESS PERIOD     26
 UBDSV06 SAVING              RCH IN MODEL TEST_TRANS       PACKAGE TEST_TRANS      CONNECTED TO MODEL TEST_TRANS       PACKAGE RCHA             ON UNIT   1016 AT TIME STEP      3, STRESS PERIOD     26
 UBDSV06 SAVING              CHD IN MODEL TEST_TRANS       PACKAGE TEST_TRANS      CONNECTED TO MODEL TEST_TRANS       PACKAGE CHD              ON UNIT   1016 AT TIME STEP      3, STRESS PERIOD     26

 HEAD WILL BE SAVED ON UNIT 1017 AT END OF TIME STEP    3, STRESS PERIOD   26
 UBDSV1 SAVING           STO-SS ON UNIT   1016 AT TIME STEP      4, STRESS PERIOD     26
 UBDSV1 SAVING           STO-SY ON UNIT   1016 AT TIME STEP      4, STRESS PERIOD     26
 UBDSV1 SAVING     FLOW-JA-FACE ON UNIT   1016 AT TIME STEP      4, STRESS PERIOD     26
 UBDSV06 SAVING              RCH IN MODEL TEST_TRANS       PACKAGE TEST_TRANS      CONNECTED TO MODEL TEST_TRANS       PACKAGE RCHA             ON UNIT   1016 AT TIME STEP      4, STRESS PERIOD     26
 UBDSV06 SAVING              CHD IN MODEL TEST_TRANS       PACKAGE TEST_TRANS      CONNECTED TO MODEL TEST_TRANS       PACKAGE CHD              ON UNIT   1016 AT TIME STEP      4, STRESS PERIOD     26

 HEAD WILL BE SAVED ON UNIT 1017 AT END OF TIME STEP    4, STRESS PERIOD   26
 UBDSV1 SAVING           STO-SS ON UNIT   1016 AT TIME STEP      5, STRESS PERIOD     26
 UBDSV1 SAVING           STO-SY ON UNIT   1016 AT TIME STEP      5, STRESS PERIOD     26
 UBDSV1 SAVING     FLOW-JA-FACE ON UNIT   1016 AT TIME STEP      5, STRESS PERIOD     26
 UBDSV06 SAVING              RCH IN MODEL TEST_TRANS       PACKAGE TEST_TRANS      CONNECTED TO MODEL TEST_TRANS       PACKAGE RCHA             ON UNIT   1016 AT TIME STEP      5, STRESS PERIOD     26
 UBDSV06 SAVING              CHD IN MODEL TEST_TRANS       PACKAGE TEST_TRANS      CONNECTED TO MODEL TEST_TRANS       PACKAGE CHD              ON UNIT   1016 AT TIME STEP      5, STRESS PERIOD     26

 HEAD WILL BE SAVED ON UNIT 1017 AT END OF TIME STEP    5, STRESS PERIOD   26
 UBDSV1 SAVING           STO-SS ON UNIT   1016 AT TIME STEP      6, STRESS PERIOD     26
 UBDSV1 SAVING           STO-SY ON UNIT   1016 AT TIME STEP      6, STRESS PERIOD     26
 UBDSV1 SAVING     FLOW-JA-FACE ON UNIT   1016 AT TIME STEP      6, STRESS PERIOD     26
 UBDSV06 SAVING              RCH IN MODEL TEST_TRANS       PACKAGE TEST_TRANS      CONNECTED TO MODEL TEST_TRANS       PACKAGE RCHA             ON UNIT   1016 AT TIME STEP      6, STRESS PERIOD     26
 UBDSV06 SAVING              CHD IN MODEL TEST_TRANS       PACKAGE TEST_TRANS      CONNECTED TO MODEL TEST_TRANS       PACKAGE CHD              ON UNIT   1016 AT TIME STEP      6, STRESS PERIOD     26

 HEAD WILL BE SAVED ON UNIT 1017 AT END OF TIME STEP    6, STRESS PERIOD   26
 UBDSV1 SAVING           STO-SS ON UNIT   1016 AT TIME STEP      7, STRESS PERIOD     26
 UBDSV1 SAVING           STO-SY ON UNIT   1016 AT TIME STEP      7, STRESS PERIOD     26
 UBDSV1 SAVING     FLOW-JA-FACE ON UNIT   1016 AT TIME STEP      7, STRESS PERIOD     26
 UBDSV06 SAVING              RCH IN MODEL TEST_TRANS       PACKAGE TEST_TRANS      CONNECTED TO MODEL TEST_TRANS       PACKAGE RCHA             ON UNIT   1016 AT TIME STEP      7, STRESS PERIOD     26
 UBDSV06 SAVING              CHD IN MODEL TEST_TRANS       PACKAGE TEST_TRANS      CONNECTED TO MODEL TEST_TRANS       PACKAGE CHD              ON UNIT   1016 AT TIME STEP      7, STRESS PERIOD     26

 HEAD WILL BE SAVED ON UNIT 1017 AT END OF TIME STEP    7, STRESS PERIOD   26
 UBDSV1 SAVING           STO-SS ON UNIT   1016 AT TIME STEP      8, STRESS PERIOD     26
 UBDSV1 SAVING           STO-SY ON UNIT   1016 AT TIME STEP      8, STRESS PERIOD     26
 UBDSV1 SAVING     FLOW-JA-FACE ON UNIT   1016 AT TIME STEP      8, STRESS PERIOD     26
 UBDSV06 SAVING              RCH IN MODEL TEST_TRANS       PACKAGE TEST_TRANS      CONNECTED TO MODEL TEST_TRANS       PACKAGE RCHA             ON UNIT   1016 AT TIME STEP      8, STRESS PERIOD     26
 UBDSV06 SAVING              CHD IN MODEL TEST_TRANS       PACKAGE TEST_TRANS      CONNECTED TO MODEL TEST_TRANS       PACKAGE CHD              ON UNIT   1016 AT TIME STEP      8, STRESS PERIOD     26

 HEAD WILL BE SAVED ON UNIT 1017 AT END OF TIME STEP    8, STRESS PERIOD   26
 UBDSV1 SAVING           STO-SS ON UNIT   1016 AT TIME STEP      9, STRESS PERIOD     26
 UBDSV1 SAVING           STO-SY ON UNIT   1016 AT TIME STEP      9, STRESS PERIOD     26
 UBDSV1 SAVING     FLOW-JA-FACE ON UNIT   1016 AT TIME STEP      9, STRESS PERIOD     26
 UBDSV06 SAVING              RCH IN MODEL TEST_TRANS       PACKAGE TEST_TRANS      CONNECTED TO MODEL TEST_TRANS       PACKAGE RCHA             ON UNIT   1016 AT TIME STEP      9, STRESS PERIOD     26
 UBDSV06 SAVING              CHD IN MODEL TEST_TRANS       PACKAGE TEST_TRANS      CONNECTED TO MODEL TEST_TRANS       PACKAGE CHD              ON UNIT   1016 AT TIME STEP      9, STRESS PERIOD     26

 HEAD WILL BE SAVED ON UNIT 1017 AT END OF TIME STEP    9, STRESS PERIOD   26
 UBDSV1 SAVING           STO-SS ON UNIT   1016 AT TIME STEP     10, STRESS PERIOD     26
 UBDSV1 SAVING           STO-SY ON UNIT   1016 AT TIME STEP     10, STRESS PERIOD     26
 UBDSV1 SAVING     FLOW-JA-FACE ON UNIT   1016 AT TIME STEP     10, STRESS PERIOD     26
 UBDSV06 SAVING              RCH IN MODEL TEST_TRANS       PACKAGE TEST_TRANS      CONNECTED TO MODEL TEST_TRANS       PACKAGE RCHA             ON UNIT   1016 AT TIME STEP     10, STRESS PERIOD     26
 UBDSV06 SAVING              CHD IN MODEL TEST_TRANS       PACKAGE TEST_TRANS      CONNECTED TO MODEL TEST_TRANS       PACKAGE CHD              ON UNIT   1016 AT TIME STEP     10, STRESS PERIOD     26
1
  HEAD IN LAYER   1 AT END OF TIME STEP  10 IN STRESS PERIOD   26
  ---------------------------------------------------------------------------

            1           2           3           4           5           6           7           8           9          10
           11          12          13          14          15          16          17          18          19          20
           21          22          23          24          25          26          27          28          29          30
 ........................................................................................................................
   1    28.10       28.10       28.09       28.07       28.05       28.02       27.99       27.95       27.91       27.86    
        27.80       27.74       27.67       27.60       27.52       27.43       27.33       27.22       27.10       26.98    
        26.84       26.68       26.52       26.33       26.13       25.90       25.64       25.34       24.97       24.49    
   2    28.10       28.10       28.09       28.07       28.05       28.02       27.99       27.95       27.91       27.86    
        27.80       27.74       27.67       27.60       27.52       27.43       27.33       27.22       27.10       26.98    
        26.84       26.68       26.52       26.33       26.13       25.90       25.64       25.34       24.97       24.49    
   3    28.10       28.10       28.09       28.07       28.05       28.02       27.99       27.95       27.91       27.86    
        27.80       27.74       27.67       27.60       27.52       27.43       27.33       27.22       27.10       26.98    
        26.84       26.68       26.52       26.33       26.13       25.90       25.64       25.34       24.97       24.49    
   4    28.10       28.10       28.09       28.07       28.05       28.02       27.99       27.95       27.91       27.86    
        27.80       27.74       27.67       27.60       27.52       27.43       27.33       27.22       27.10       26.98    
        26.84       26.68       26.52       26.33       26.13       25.90       25.64       25.34       24.97       24.49    
   5    28.10       28.10       28.09       28.07       28.05       28.02       27.99       27.95       27.91       27.86    
        27.80       27.74       27.67       27.60       27.52       27.43       27.33       27.22       27.10       26.98    
        26.84       26.68       26.52       26.33       26.13       25.90       25.64       25.34       24.97       24.49    
   6    28.10       28.10       28.09       28.07       28.05       28.02       27.99       27.95       27.91       27.86    
        27.80       27.74       27.67       27.60       27.52       27.43       27.33       27.22       27.10       26.98    
        26.84       26.68       26.52       26.33       26.13       25.90       25.64       25.34       24.97       24.49    
   7    28.10       28.10       28.09       28.07       28.05       28.02       27.99       27.95       27.91       27.86    
        27.80       27.74       27.67       27.60       27.52       27.43       27.33       27.22       27.10       26.98    
        26.84       26.68       26.52       26.33       26.13       25.90       25.64       25.34       24.97       24.49    
   8    28.10       28.10       28.09       28.07       28.05       28.02       27.99       27.95       27.91       27.86    
        27.80       27.74       27.67       27.60       27.52       27.43       27.33       27.22       27.10       26.98    
        26.84       26.68       26.52       26.33       26.13       25.90       25.64       25.34       24.97       24.49    
   9    28.10       28.10       28.09       28.07       28.05       28.02       27.99       27.95       27.91       27.86    
        27.80       27.74       27.67       27.60       27.52       27.43       27.33       27.22       27.10       26.98    
        26.84       26.68       26.52       26.33       26.13       25.90       25.64       25.34       24.97       24.49    
  10    28.10       28.10       28.09       28.07       28.05       28.02       27.99       27.95       27.91       27.86    
        27.80       27.74       27.67       27.60       27.52       27.43       27.33       27.22       27.10       26.98    
        26.84       26.68       26.52       26.33       26.13       25.90       25.64       25.34       24.97       24.49    
  11    28.10       28.10       28.09       28.07       28.05       28.02       27.99       27.95       27.91       27.86    
        27.80       27.74       27.67       27.60       27.52       27.43       27.33       27.22       27.10       26.98    
        26.84       26.68       26.52       26.33       26.13       25.90       25.64       25.34       24.97       24.49    
  12    28.10       28.10       28.09       28.07       28.05       28.02       27.99       27.95       27.91       27.86    
        27.80       27.74       27.67       27.60       27.52       27.43       27.33       27.22       27.10       26.98    
        26.84       26.68       26.52       26.33       26.13       25.90       25.64       25.34       24.97       24.49    
  13    28.10       28.10       28.09       28.07       28.05       28.02       27.99       27.95       27.91       27.86    
        27.80       27.74       27.67       27.60       27.52       27.43       27.33       27.22       27.10       26.98    
        26.84       26.68       26.52       26.33       26.13       25.90       25.64       25.34       24.97       24.49    
  14    28.10       28.10       28.09       28.07       28.05       28.02       27.99       27.95       27.91       27.86    
        27.80       27.74       27.67       27.60       27.52       27.43       27.33       27.22       27.10       26.98    
        26.84       26.68       26.52       26.33       26.13       25.90       25.64       25.34       24.97       24.49    
  15    28.10       28.10       28.09       28.07       28.05       28.02       27.99       27.95       27.91       27.86    
        27.80       27.74       27.67       27.60       27.52       27.43       27.33       27.22       27.10       26.98    
        26.84       26.68       26.52       26.33       26.13       25.90       25.64       25.34       24.97       24.49    
  16    28.10       28.10       28.09       28.07       28.05       28.02       27.99       27.95       27.91       27.86    
        27.80       27.74       27.67       27.60       27.52       27.43       27.33       27.22       27.10       26.98    
        26.84       26.68       26.52       26.33       26.13       25.90       25.64       25.34       24.97       24.49    
  17    28.10       28.10       28.09       28.07       28.05       28.02       27.99       27.95       27.91       27.86    
        27.80       27.74       27.67       27.60       27.52       27.43       27.33       27.22       27.10       26.98    
        26.84       26.68       26.52       26.33       26.13       25.90       25.64       25.34       24.97       24.49    
  18    28.10       28.10       28.09       28.07       28.05       28.02       27.99       27.95       27.91       27.86    
        27.80       27.74       27.67       27.60       27.52       27.43       27.33       27.22       27.10       26.98    
        26.84       26.68       26.52       26.33       26.13       25.90       25.64       25.34       24.97       24.49    
  19    28.10       28.10       28.09       28.07       28.05       28.02       27.99       27.95       27.91       27.86    
        27.80       27.74       27.67       27.60       27.52       27.43       27.33       27.22       27.10       26.98    
        26.84       26.68       26.52       26.33       26.13       25.90       25.64       25.34       24.97       24.49    
  20    28.10       28.10       28.09       28.07       28.05       28.02       27.99       27.95       27.91       27.86    
        27.80       27.74       27.67       27.60       27.52       27.43       27.33       27.22       27.10       26.98    
        26.84       26.68       26.52       26.33       26.13       25.90       25.64       25.34       24.97       24.49    
  21    28.10       28.10       28.09       28.07       28.05       28.02       27.99       27.95       27.91       27.86    
        27.80       27.74       27.67       27.60       27.52       27.43       27.33       27.22       27.10       26.98    
        26.84       26.68       26.52       26.33       26.13       25.90       25.64       25.34       24.97       24.49    
  22    28.10       28.10       28.09       28.07       28.05       28.02       27.99       27.95       27.91       27.86    
        27.80       27.74       27.67       27.60       27.52       27.43       27.33       27.22       27.10       26.98    
        26.84       26.68       26.52       26.33       26.13       25.90       25.64       25.34       24.97       24.49    
  23    28.10       28.10       28.09       28.07       28.05       28.02       27.99       27.95       27.91       27.86    
        27.80       27.74       27.67       27.60       27.52       27.43       27.33       27.22       27.10       26.98    
        26.84       26.68       26.52       26.33       26.13       25.90       25.64       25.34       24.97       24.49    
  24    28.10       28.10       28.09       28.07       28.05       28.02       27.99       27.95       27.91       27.86    
        27.80       27.74       27.67       27.60       27.52       27.43       27.33       27.22       27.10       26.98    
        26.84       26.68       26.52       26.33       26.13       25.90       25.64       25.34       24.97       24.49    
  25    28.10       28.10       28.09       28.07       28.05       28.02       27.99       27.95       27.91       27.86    
        27.80       27.74       27.67       27.60       27.52       27.43       27.33       27.22       27.10       26.98    
        26.84       26.68       26.52       26.33       26.13       25.90       25.64       25.34       24.97       24.49    
  26    28.10       28.10       28.09       28.07       28.05       28.02       27.99       27.95       27.91       27.86    
        27.80       27.74       27.67       27.60       27.52       27.43       27.33       27.22       27.10       26.98    
        26.84       26.68       26.52       26.33       26.13       25.90       25.64       25.34       24.97       24.49    
  27    28.10       28.10       28.09       28.07       28.05       28.02       27.99       27.95       27.91       27.86    
        27.80       27.74       27.67       27.60       27.52       27.43       27.33       27.22       27.10       26.98    
        26.84       26.68       26.52       26.33       26.13       25.90       25.64       25.34       24.97       24.49    
  28    28.10       28.10       28.09       28.07       28.05       28.02       27.99       27.95       27.91       27.86    
        27.80       27.74       27.67       27.60       27.52       27.43       27.33       27.22       27.10       26.98    
        26.84       26.68       26.52       26.33       26.13       25.90       25.64       25.34       24.97       24.49    
  29    28.10       28.10       28.09       28.07       28.05       28.02       27.99       27.95       27.91       27.86    
        27.80       27.74       27.67       27.60       27.52       27.43       27.33       27.22       27.10       26.98    
        26.84       26.68       26.52       26.33       26.13       25.90       25.64       25.34       24.97       24.49    
  30    28.10       28.10       28.09       28.07       28.05       28.02       27.99       27.95       27.91       27.86    
        27.80       27.74       27.67       27.60       27.52       27.43       27.33       27.22       27.10       26.98    
        26.84       26.68       26.52       26.33       26.13       25.90       25.64       25.34       24.97       24.49    

 HEAD WILL BE SAVED ON UNIT 1017 AT END OF TIME STEP   10, STRESS PERIOD   26


  VOLUME BUDGET FOR ENTIRE MODEL AT END OF TIME STEP   10, STRESS PERIOD  26
  ---------------------------------------------------------------------------------------------------

     CUMULATIVE VOLUME      L**3       RATES FOR THIS TIME STEP      L**3/T          PACKAGE NAME    
     ------------------                 ------------------------                     ----------------

           IN:                                      IN:
           ---                                      ---
              STO-SS =          41.9546                STO-SS =           0.0000     STORAGE         
              STO-SY =       27058.3843                STO-SY =           0.0000     STORAGE         
                 RCH =      128235.6693                   RCH =         286.0273     RCHA            
                 CHD =        2273.1987                   CHD =           0.0000     CHD             

            TOTAL IN =      157609.2070              TOTAL IN =         286.0273

          OUT:                                     OUT:
          ----                                     ----
              STO-SS =          35.7639                STO-SS =           0.1164     STORAGE         
              STO-SY =       23254.7692                STO-SY =          73.2524     STORAGE         
                 RCH =           0.0000                   RCH =           0.0000     RCHA            
                 CHD =      134318.5442                   CHD =         212.6675     CHD             

           TOTAL OUT =      157609.0773             TOTAL OUT =         286.0364

            IN - OUT =           0.1297              IN - OUT =      -9.0772E-03

 PERCENT DISCREPANCY =           0.00     PERCENT DISCREPANCY =          -0.00




         TIME SUMMARY AT END OF TIME STEP   10 IN STRESS PERIOD   26
                    SECONDS     MINUTES      HOURS       DAYS        YEARS
                    -----------------------------------------------------------
   TIME STEP LENGTH 2.59200E+05  4320.0      72.000      3.0000     8.21355E-03
 STRESS PERIOD TIME 2.59200E+06  43200.      720.00      30.000     8.21355E-02
         TOTAL TIME 6.48864E+07 1.08144E+06  18024.      751.00      2.0561    

 OUTPUT CONTROL FOR STRESS PERIOD 27 IS REPEATED USING SETTINGS FROM A PREVIOUS STRESS PERIOD.


 STRESS PERIOD 27 IS TRANSIENT


                 RECHARGE =  0.2465750E-02
 UBDSV1 SAVING           STO-SS ON UNIT   1016 AT TIME STEP      1, STRESS PERIOD     27
 UBDSV1 SAVING           STO-SY ON UNIT   1016 AT TIME STEP      1, STRESS PERIOD     27
 UBDSV1 SAVING     FLOW-JA-FACE ON UNIT   1016 AT TIME STEP      1, STRESS PERIOD     27
 UBDSV06 SAVING              RCH IN MODEL TEST_TRANS       PACKAGE TEST_TRANS      CONNECTED TO MODEL TEST_TRANS       PACKAGE RCHA             ON UNIT   1016 AT TIME STEP      1, STRESS PERIOD     27
 UBDSV06 SAVING              CHD IN MODEL TEST_TRANS       PACKAGE TEST_TRANS      CONNECTED TO MODEL TEST_TRANS       PACKAGE CHD              ON UNIT   1016 AT TIME STEP      1, STRESS PERIOD     27
1
  HEAD IN LAYER   1 AT END OF TIME STEP   1 IN STRESS PERIOD   27
  ---------------------------------------------------------------------------

            1           2           3           4           5           6           7           8           9          10
           11          12          13          14          15          16          17          18          19          20
           21          22          23          24          25          26          27          28          29          30
 ........................................................................................................................
   1    28.10       28.10       28.09       28.07       28.05       28.02       27.99       27.96       27.91       27.86    
        27.81       27.74       27.68       27.60       27.52       27.43       27.33       27.22       27.10       26.98    
        26.84       26.69       26.52       26.34       26.15       25.93       25.69       25.44       25.17       24.93    
   2    28.10       28.10       28.09       28.07       28.05       28.02       27.99       27.96       27.91       27.86    
        27.81       27.74       27.68       27.60       27.52       27.43       27.33       27.22       27.10       26.98    
        26.84       26.69       26.52       26.34       26.15       25.93       25.69       25.44       25.17       24.93    
   3    28.10       28.10       28.09       28.07       28.05       28.02       27.99       27.96       27.91       27.86    
        27.81       27.74       27.68       27.60       27.52       27.43       27.33       27.22       27.10       26.98    
        26.84       26.69       26.52       26.34       26.15       25.93       25.69       25.44       25.17       24.93    
   4    28.10       28.10       28.09       28.07       28.05       28.02       27.99       27.96       27.91       27.86    
        27.81       27.74       27.68       27.60       27.52       27.43       27.33       27.22       27.10       26.98    
        26.84       26.69       26.52       26.34       26.15       25.93       25.69       25.44       25.17       24.93    
   5    28.10       28.10       28.09       28.07       28.05       28.02       27.99       27.96       27.91       27.86    
        27.81       27.74       27.68       27.60       27.52       27.43       27.33       27.22       27.10       26.98    
        26.84       26.69       26.52       26.34       26.15       25.93       25.69       25.44       25.17       24.93    
   6    28.10       28.10       28.09       28.07       28.05       28.02       27.99       27.96       27.91       27.86    
        27.81       27.74       27.68       27.60       27.52       27.43       27.33       27.22       27.10       26.98    
        26.84       26.69       26.52       26.34       26.15       25.93       25.69       25.44       25.17       24.93    
   7    28.10       28.10       28.09       28.07       28.05       28.02       27.99       27.96       27.91       27.86    
        27.81       27.74       27.68       27.60       27.52       27.43       27.33       27.22       27.10       26.98    
        26.84       26.69       26.52       26.34       26.15       25.93       25.69       25.44       25.17       24.93    
   8    28.10       28.10       28.09       28.07       28.05       28.02       27.99       27.96       27.91       27.86    
        27.81       27.74       27.68       27.60       27.52       27.43       27.33       27.22       27.10       26.98    
        26.84       26.69       26.52       26.34       26.15       25.93       25.69       25.44       25.17       24.93    
   9    28.10       28.10       28.09       28.07       28.05       28.02       27.99       27.96       27.91       27.86    
        27.81       27.74       27.68       27.60       27.52       27.43       27.33       27.22       27.10       26.98    
        26.84       26.69       26.52       26.34       26.15       25.93       25.69       25.44       25.17       24.93    
  10    28.10       28.10       28.09       28.07       28.05       28.02       27.99       27.96       27.91       27.86    
        27.81       27.74       27.68       27.60       27.52       27.43       27.33       27.22       27.10       26.98    
        26.84       26.69       26.52       26.34       26.15       25.93       25.69       25.44       25.17       24.93    
  11    28.10       28.10       28.09       28.07       28.05       28.02       27.99       27.96       27.91       27.86    
        27.81       27.74       27.68       27.60       27.52       27.43       27.33       27.22       27.10       26.98    
        26.84       26.69       26.52       26.34       26.15       25.93       25.69       25.44       25.17       24.93    
  12    28.10       28.10       28.09       28.07       28.05       28.02       27.99       27.96       27.91       27.86    
        27.81       27.74       27.68       27.60       27.52       27.43       27.33       27.22       27.10       26.98    
        26.84       26.69       26.52       26.34       26.15       25.93       25.69       25.44       25.17       24.93    
  13    28.10       28.10       28.09       28.07       28.05       28.02       27.99       27.96       27.91       27.86    
        27.81       27.74       27.68       27.60       27.52       27.43       27.33       27.22       27.10       26.98    
        26.84       26.69       26.52       26.34       26.15       25.93       25.69       25.44       25.17       24.93    
  14    28.10       28.10       28.09       28.07       28.05       28.02       27.99       27.96       27.91       27.86    
        27.81       27.74       27.68       27.60       27.52       27.43       27.33       27.22       27.10       26.98    
        26.84       26.69       26.52       26.34       26.15       25.93       25.69       25.44       25.17       24.93    
  15    28.10       28.10       28.09       28.07       28.05       28.02       27.99       27.96       27.91       27.86    
        27.81       27.74       27.68       27.60       27.52       27.43       27.33       27.22       27.10       26.98    
        26.84       26.69       26.52       26.34       26.15       25.93       25.69       25.44       25.17       24.93    
  16    28.10       28.10       28.09       28.07       28.05       28.02       27.99       27.96       27.91       27.86    
        27.81       27.74       27.68       27.60       27.52       27.43       27.33       27.22       27.10       26.98    
        26.84       26.69       26.52       26.34       26.15       25.93       25.69       25.44       25.17       24.93    
  17    28.10       28.10       28.09       28.07       28.05       28.02       27.99       27.96       27.91       27.86    
        27.81       27.74       27.68       27.60       27.52       27.43       27.33       27.22       27.10       26.98    
        26.84       26.69       26.52       26.34       26.15       25.93       25.69       25.44       25.17       24.93    
  18    28.10       28.10       28.09       28.07       28.05       28.02       27.99       27.96       27.91       27.86    
        27.81       27.74       27.68       27.60       27.52       27.43       27.33       27.22       27.10       26.98    
        26.84       26.69       26.52       26.34       26.15       25.93       25.69       25.44       25.17       24.93    
  19    28.10       28.10       28.09       28.07       28.05       28.02       27.99       27.96       27.91       27.86    
        27.81       27.74       27.68       27.60       27.52       27.43       27.33       27.22       27.10       26.98    
        26.84       26.69       26.52       26.34       26.15       25.93       25.69       25.44       25.17       24.93    
  20    28.10       28.10       28.09       28.07       28.05       28.02       27.99       27.96       27.91       27.86    
        27.81       27.74       27.68       27.60       27.52       27.43       27.33       27.22       27.10       26.98    
        26.84       26.69       26.52       26.34       26.15       25.93       25.69       25.44       25.17       24.93    
  21    28.10       28.10       28.09       28.07       28.05       28.02       27.99       27.96       27.91       27.86    
        27.81       27.74       27.68       27.60       27.52       27.43       27.33       27.22       27.10       26.98    
        26.84       26.69       26.52       26.34       26.15       25.93       25.69       25.44       25.17       24.93    
  22    28.10       28.10       28.09       28.07       28.05       28.02       27.99       27.96       27.91       27.86    
        27.81       27.74       27.68       27.60       27.52       27.43       27.33       27.22       27.10       26.98    
        26.84       26.69       26.52       26.34       26.15       25.93       25.69       25.44       25.17       24.93    
  23    28.10       28.10       28.09       28.07       28.05       28.02       27.99       27.96       27.91       27.86    
        27.81       27.74       27.68       27.60       27.52       27.43       27.33       27.22       27.10       26.98    
        26.84       26.69       26.52       26.34       26.15       25.93       25.69       25.44       25.17       24.93    
  24    28.10       28.10       28.09       28.07       28.05       28.02       27.99       27.96       27.91       27.86    
        27.81       27.74       27.68       27.60       27.52       27.43       27.33       27.22       27.10       26.98    
        26.84       26.69       26.52       26.34       26.15       25.93       25.69       25.44       25.17       24.93    
  25    28.10       28.10       28.09       28.07       28.05       28.02       27.99       27.96       27.91       27.86    
        27.81       27.74       27.68       27.60       27.52       27.43       27.33       27.22       27.10       26.98    
        26.84       26.69       26.52       26.34       26.15       25.93       25.69       25.44       25.17       24.93    
  26    28.10       28.10       28.09       28.07       28.05       28.02       27.99       27.96       27.91       27.86    
        27.81       27.74       27.68       27.60       27.52       27.43       27.33       27.22       27.10       26.98    
        26.84       26.69       26.52       26.34       26.15       25.93       25.69       25.44       25.17       24.93    
  27    28.10       28.10       28.09       28.07       28.05       28.02       27.99       27.96       27.91       27.86    
        27.81       27.74       27.68       27.60       27.52       27.43       27.33       27.22       27.10       26.98    
        26.84       26.69       26.52       26.34       26.15       25.93       25.69       25.44       25.17       24.93    
  28    28.10       28.10       28.09       28.07       28.05       28.02       27.99       27.96       27.91       27.86    
        27.81       27.74       27.68       27.60       27.52       27.43       27.33       27.22       27.10       26.98    
        26.84       26.69       26.52       26.34       26.15       25.93       25.69       25.44       25.17       24.93    
  29    28.10       28.10       28.09       28.07       28.05       28.02       27.99       27.96       27.91       27.86    
        27.81       27.74       27.68       27.60       27.52       27.43       27.33       27.22       27.10       26.98    
        26.84       26.69       26.52       26.34       26.15       25.93       25.69       25.44       25.17       24.93    
  30    28.10       28.10       28.09       28.07       28.05       28.02       27.99       27.96       27.91       27.86    
        27.81       27.74       27.68       27.60       27.52       27.43       27.33       27.22       27.10       26.98    
        26.84       26.69       26.52       26.34       26.15       25.93       25.69       25.44       25.17       24.93    

 HEAD WILL BE SAVED ON UNIT 1017 AT END OF TIME STEP    1, STRESS PERIOD   27



         TIME SUMMARY AT END OF TIME STEP    1 IN STRESS PERIOD   27
                    SECONDS     MINUTES      HOURS       DAYS        YEARS
                    -----------------------------------------------------------
   TIME STEP LENGTH 2.59200E+05  4320.0      72.000      3.0000     8.21355E-03
 STRESS PERIOD TIME 2.59200E+05  4320.0      72.000      3.0000     8.21355E-03
         TOTAL TIME 6.51456E+07 1.08576E+06  18096.      754.00      2.0643    
 UBDSV1 SAVING           STO-SS ON UNIT   1016 AT TIME STEP      2, STRESS PERIOD     27
 UBDSV1 SAVING           STO-SY ON UNIT   1016 AT TIME STEP      2, STRESS PERIOD     27
 UBDSV1 SAVING     FLOW-JA-FACE ON UNIT   1016 AT TIME STEP      2, STRESS PERIOD     27
 UBDSV06 SAVING              RCH IN MODEL TEST_TRANS       PACKAGE TEST_TRANS      CONNECTED TO MODEL TEST_TRANS       PACKAGE RCHA             ON UNIT   1016 AT TIME STEP      2, STRESS PERIOD     27
 UBDSV06 SAVING              CHD IN MODEL TEST_TRANS       PACKAGE TEST_TRANS      CONNECTED TO MODEL TEST_TRANS       PACKAGE CHD              ON UNIT   1016 AT TIME STEP      2, STRESS PERIOD     27

 HEAD WILL BE SAVED ON UNIT 1017 AT END OF TIME STEP    2, STRESS PERIOD   27
 UBDSV1 SAVING           STO-SS ON UNIT   1016 AT TIME STEP      3, STRESS PERIOD     27
 UBDSV1 SAVING           STO-SY ON UNIT   1016 AT TIME STEP      3, STRESS PERIOD     27
 UBDSV1 SAVING     FLOW-JA-FACE ON UNIT   1016 AT TIME STEP      3, STRESS PERIOD     27
 UBDSV06 SAVING              RCH IN MODEL TEST_TRANS       PACKAGE TEST_TRANS      CONNECTED TO MODEL TEST_TRANS       PACKAGE RCHA             ON UNIT   1016 AT TIME STEP      3, STRESS PERIOD     27
 UBDSV06 SAVING              CHD IN MODEL TEST_TRANS       PACKAGE TEST_TRANS      CONNECTED TO MODEL TEST_TRANS       PACKAGE CHD              ON UNIT   1016 AT TIME STEP      3, STRESS PERIOD     27

 HEAD WILL BE SAVED ON UNIT 1017 AT END OF TIME STEP    3, STRESS PERIOD   27
 UBDSV1 SAVING           STO-SS ON UNIT   1016 AT TIME STEP      4, STRESS PERIOD     27
 UBDSV1 SAVING           STO-SY ON UNIT   1016 AT TIME STEP      4, STRESS PERIOD     27
 UBDSV1 SAVING     FLOW-JA-FACE ON UNIT   1016 AT TIME STEP      4, STRESS PERIOD     27
 UBDSV06 SAVING              RCH IN MODEL TEST_TRANS       PACKAGE TEST_TRANS      CONNECTED TO MODEL TEST_TRANS       PACKAGE RCHA             ON UNIT   1016 AT TIME STEP      4, STRESS PERIOD     27
 UBDSV06 SAVING              CHD IN MODEL TEST_TRANS       PACKAGE TEST_TRANS      CONNECTED TO MODEL TEST_TRANS       PACKAGE CHD              ON UNIT   1016 AT TIME STEP      4, STRESS PERIOD     27

 HEAD WILL BE SAVED ON UNIT 1017 AT END OF TIME STEP    4, STRESS PERIOD   27
 UBDSV1 SAVING           STO-SS ON UNIT   1016 AT TIME STEP      5, STRESS PERIOD     27
 UBDSV1 SAVING           STO-SY ON UNIT   1016 AT TIME STEP      5, STRESS PERIOD     27
 UBDSV1 SAVING     FLOW-JA-FACE ON UNIT   1016 AT TIME STEP      5, STRESS PERIOD     27
 UBDSV06 SAVING              RCH IN MODEL TEST_TRANS       PACKAGE TEST_TRANS      CONNECTED TO MODEL TEST_TRANS       PACKAGE RCHA             ON UNIT   1016 AT TIME STEP      5, STRESS PERIOD     27
 UBDSV06 SAVING              CHD IN MODEL TEST_TRANS       PACKAGE TEST_TRANS      CONNECTED TO MODEL TEST_TRANS       PACKAGE CHD              ON UNIT   1016 AT TIME STEP      5, STRESS PERIOD     27

 HEAD WILL BE SAVED ON UNIT 1017 AT END OF TIME STEP    5, STRESS PERIOD   27
 UBDSV1 SAVING           STO-SS ON UNIT   1016 AT TIME STEP      6, STRESS PERIOD     27
 UBDSV1 SAVING           STO-SY ON UNIT   1016 AT TIME STEP      6, STRESS PERIOD     27
 UBDSV1 SAVING     FLOW-JA-FACE ON UNIT   1016 AT TIME STEP      6, STRESS PERIOD     27
 UBDSV06 SAVING              RCH IN MODEL TEST_TRANS       PACKAGE TEST_TRANS      CONNECTED TO MODEL TEST_TRANS       PACKAGE RCHA             ON UNIT   1016 AT TIME STEP      6, STRESS PERIOD     27
 UBDSV06 SAVING              CHD IN MODEL TEST_TRANS       PACKAGE TEST_TRANS      CONNECTED TO MODEL TEST_TRANS       PACKAGE CHD              ON UNIT   1016 AT TIME STEP      6, STRESS PERIOD     27

 HEAD WILL BE SAVED ON UNIT 1017 AT END OF TIME STEP    6, STRESS PERIOD   27
 UBDSV1 SAVING           STO-SS ON UNIT   1016 AT TIME STEP      7, STRESS PERIOD     27
 UBDSV1 SAVING           STO-SY ON UNIT   1016 AT TIME STEP      7, STRESS PERIOD     27
 UBDSV1 SAVING     FLOW-JA-FACE ON UNIT   1016 AT TIME STEP      7, STRESS PERIOD     27
 UBDSV06 SAVING              RCH IN MODEL TEST_TRANS       PACKAGE TEST_TRANS      CONNECTED TO MODEL TEST_TRANS       PACKAGE RCHA             ON UNIT   1016 AT TIME STEP      7, STRESS PERIOD     27
 UBDSV06 SAVING              CHD IN MODEL TEST_TRANS       PACKAGE TEST_TRANS      CONNECTED TO MODEL TEST_TRANS       PACKAGE CHD              ON UNIT   1016 AT TIME STEP      7, STRESS PERIOD     27

 HEAD WILL BE SAVED ON UNIT 1017 AT END OF TIME STEP    7, STRESS PERIOD   27
 UBDSV1 SAVING           STO-SS ON UNIT   1016 AT TIME STEP      8, STRESS PERIOD     27
 UBDSV1 SAVING           STO-SY ON UNIT   1016 AT TIME STEP      8, STRESS PERIOD     27
 UBDSV1 SAVING     FLOW-JA-FACE ON UNIT   1016 AT TIME STEP      8, STRESS PERIOD     27
 UBDSV06 SAVING              RCH IN MODEL TEST_TRANS       PACKAGE TEST_TRANS      CONNECTED TO MODEL TEST_TRANS       PACKAGE RCHA             ON UNIT   1016 AT TIME STEP      8, STRESS PERIOD     27
 UBDSV06 SAVING              CHD IN MODEL TEST_TRANS       PACKAGE TEST_TRANS      CONNECTED TO MODEL TEST_TRANS       PACKAGE CHD              ON UNIT   1016 AT TIME STEP      8, STRESS PERIOD     27

 HEAD WILL BE SAVED ON UNIT 1017 AT END OF TIME STEP    8, STRESS PERIOD   27
 UBDSV1 SAVING           STO-SS ON UNIT   1016 AT TIME STEP      9, STRESS PERIOD     27
 UBDSV1 SAVING           STO-SY ON UNIT   1016 AT TIME STEP      9, STRESS PERIOD     27
 UBDSV1 SAVING     FLOW-JA-FACE ON UNIT   1016 AT TIME STEP      9, STRESS PERIOD     27
 UBDSV06 SAVING              RCH IN MODEL TEST_TRANS       PACKAGE TEST_TRANS      CONNECTED TO MODEL TEST_TRANS       PACKAGE RCHA             ON UNIT   1016 AT TIME STEP      9, STRESS PERIOD     27
 UBDSV06 SAVING              CHD IN MODEL TEST_TRANS       PACKAGE TEST_TRANS      CONNECTED TO MODEL TEST_TRANS       PACKAGE CHD              ON UNIT   1016 AT TIME STEP      9, STRESS PERIOD     27

 HEAD WILL BE SAVED ON UNIT 1017 AT END OF TIME STEP    9, STRESS PERIOD   27
 UBDSV1 SAVING           STO-SS ON UNIT   1016 AT TIME STEP     10, STRESS PERIOD     27
 UBDSV1 SAVING           STO-SY ON UNIT   1016 AT TIME STEP     10, STRESS PERIOD     27
 UBDSV1 SAVING     FLOW-JA-FACE ON UNIT   1016 AT TIME STEP     10, STRESS PERIOD     27
 UBDSV06 SAVING              RCH IN MODEL TEST_TRANS       PACKAGE TEST_TRANS      CONNECTED TO MODEL TEST_TRANS       PACKAGE RCHA             ON UNIT   1016 AT TIME STEP     10, STRESS PERIOD     27
 UBDSV06 SAVING              CHD IN MODEL TEST_TRANS       PACKAGE TEST_TRANS      CONNECTED TO MODEL TEST_TRANS       PACKAGE CHD              ON UNIT   1016 AT TIME STEP     10, STRESS PERIOD     27
1
  HEAD IN LAYER   1 AT END OF TIME STEP  10 IN STRESS PERIOD   27
  ---------------------------------------------------------------------------

            1           2           3           4           5           6           7           8           9          10
           11          12          13          14          15          16          17          18          19          20
           21          22          23          24          25          26          27          28          29          30
 ........................................................................................................................
   1    28.12       28.12       28.11       28.09       28.07       28.05       28.01       27.98       27.93       27.88    
        27.83       27.77       27.70       27.63       27.55       27.46       27.37       27.26       27.15       27.03    
        26.90       26.76       26.61       26.44       26.26       26.06       25.83       25.58       25.29       24.93    
   2    28.12       28.12       28.11       28.09       28.07       28.05       28.01       27.98       27.93       27.88    
        27.83       27.77       27.70       27.63       27.55       27.46       27.37       27.26       27.15       27.03    
        26.90       26.76       26.61       26.44       26.26       26.06       25.83       25.58       25.29       24.93    
   3    28.12       28.12       28.11       28.09       28.07       28.05       28.01       27.98       27.93       27.88    
        27.83       27.77       27.70       27.63       27.55       27.46       27.37       27.26       27.15       27.03    
        26.90       26.76       26.61       26.44       26.26       26.06       25.83       25.58       25.29       24.93    
   4    28.12       28.12       28.11       28.09       28.07       28.05       28.01       27.98       27.93       27.88    
        27.83       27.77       27.70       27.63       27.55       27.46       27.37       27.26       27.15       27.03    
        26.90       26.76       26.61       26.44       26.26       26.06       25.83       25.58       25.29       24.93    
   5    28.12       28.12       28.11       28.09       28.07       28.05       28.01       27.98       27.93       27.88    
        27.83       27.77       27.70       27.63       27.55       27.46       27.37       27.26       27.15       27.03    
        26.90       26.76       26.61       26.44       26.26       26.06       25.83       25.58       25.29       24.93    
   6    28.12       28.12       28.11       28.09       28.07       28.05       28.01       27.98       27.93       27.88    
        27.83       27.77       27.70       27.63       27.55       27.46       27.37       27.26       27.15       27.03    
        26.90       26.76       26.61       26.44       26.26       26.06       25.83       25.58       25.29       24.93    
   7    28.12       28.12       28.11       28.09       28.07       28.05       28.01       27.98       27.93       27.88    
        27.83       27.77       27.70       27.63       27.55       27.46       27.37       27.26       27.15       27.03    
        26.90       26.76       26.61       26.44       26.26       26.06       25.83       25.58       25.29       24.93    
   8    28.12       28.12       28.11       28.09       28.07       28.05       28.01       27.98       27.93       27.88    
        27.83       27.77       27.70       27.63       27.55       27.46       27.37       27.26       27.15       27.03    
        26.90       26.76       26.61       26.44       26.26       26.06       25.83       25.58       25.29       24.93    
   9    28.12       28.12       28.11       28.09       28.07       28.05       28.01       27.98       27.93       27.88    
        27.83       27.77       27.70       27.63       27.55       27.46       27.37       27.26       27.15       27.03    
        26.90       26.76       26.61       26.44       26.26       26.06       25.83       25.58       25.29       24.93    
  10    28.12       28.12       28.11       28.09       28.07       28.05       28.01       27.98       27.93       27.88    
        27.83       27.77       27.70       27.63       27.55       27.46       27.37       27.26       27.15       27.03    
        26.90       26.76       26.61       26.44       26.26       26.06       25.83       25.58       25.29       24.93    
  11    28.12       28.12       28.11       28.09       28.07       28.05       28.01       27.98       27.93       27.88    
        27.83       27.77       27.70       27.63       27.55       27.46       27.37       27.26       27.15       27.03    
        26.90       26.76       26.61       26.44       26.26       26.06       25.83       25.58       25.29       24.93    
  12    28.12       28.12       28.11       28.09       28.07       28.05       28.01       27.98       27.93       27.88    
        27.83       27.77       27.70       27.63       27.55       27.46       27.37       27.26       27.15       27.03    
        26.90       26.76       26.61       26.44       26.26       26.06       25.83       25.58       25.29       24.93    
  13    28.12       28.12       28.11       28.09       28.07       28.05       28.01       27.98       27.93       27.88    
        27.83       27.77       27.70       27.63       27.55       27.46       27.37       27.26       27.15       27.03    
        26.90       26.76       26.61       26.44       26.26       26.06       25.83       25.58       25.29       24.93    
  14    28.12       28.12       28.11       28.09       28.07       28.05       28.01       27.98       27.93       27.88    
        27.83       27.77       27.70       27.63       27.55       27.46       27.37       27.26       27.15       27.03    
        26.90       26.76       26.61       26.44       26.26       26.06       25.83       25.58       25.29       24.93    
  15    28.12       28.12       28.11       28.09       28.07       28.05       28.01       27.98       27.93       27.88    
        27.83       27.77       27.70       27.63       27.55       27.46       27.37       27.26       27.15       27.03    
        26.90       26.76       26.61       26.44       26.26       26.06       25.83       25.58       25.29       24.93    
  16    28.12       28.12       28.11       28.09       28.07       28.05       28.01       27.98       27.93       27.88    
        27.83       27.77       27.70       27.63       27.55       27.46       27.37       27.26       27.15       27.03    
        26.90       26.76       26.61       26.44       26.26       26.06       25.83       25.58       25.29       24.93    
  17    28.12       28.12       28.11       28.09       28.07       28.05       28.01       27.98       27.93       27.88    
        27.83       27.77       27.70       27.63       27.55       27.46       27.37       27.26       27.15       27.03    
        26.90       26.76       26.61       26.44       26.26       26.06       25.83       25.58       25.29       24.93    
  18    28.12       28.12       28.11       28.09       28.07       28.05       28.01       27.98       27.93       27.88    
        27.83       27.77       27.70       27.63       27.55       27.46       27.37       27.26       27.15       27.03    
        26.90       26.76       26.61       26.44       26.26       26.06       25.83       25.58       25.29       24.93    
  19    28.12       28.12       28.11       28.09       28.07       28.05       28.01       27.98       27.93       27.88    
        27.83       27.77       27.70       27.63       27.55       27.46       27.37       27.26       27.15       27.03    
        26.90       26.76       26.61       26.44       26.26       26.06       25.83       25.58       25.29       24.93    
  20    28.12       28.12       28.11       28.09       28.07       28.05       28.01       27.98       27.93       27.88    
        27.83       27.77       27.70       27.63       27.55       27.46       27.37       27.26       27.15       27.03    
        26.90       26.76       26.61       26.44       26.26       26.06       25.83       25.58       25.29       24.93    
  21    28.12       28.12       28.11       28.09       28.07       28.05       28.01       27.98       27.93       27.88    
        27.83       27.77       27.70       27.63       27.55       27.46       27.37       27.26       27.15       27.03    
        26.90       26.76       26.61       26.44       26.26       26.06       25.83       25.58       25.29       24.93    
  22    28.12       28.12       28.11       28.09       28.07       28.05       28.01       27.98       27.93       27.88    
        27.83       27.77       27.70       27.63       27.55       27.46       27.37       27.26       27.15       27.03    
        26.90       26.76       26.61       26.44       26.26       26.06       25.83       25.58       25.29       24.93    
  23    28.12       28.12       28.11       28.09       28.07       28.05       28.01       27.98       27.93       27.88    
        27.83       27.77       27.70       27.63       27.55       27.46       27.37       27.26       27.15       27.03    
        26.90       26.76       26.61       26.44       26.26       26.06       25.83       25.58       25.29       24.93    
  24    28.12       28.12       28.11       28.09       28.07       28.05       28.01       27.98       27.93       27.88    
        27.83       27.77       27.70       27.63       27.55       27.46       27.37       27.26       27.15       27.03    
        26.90       26.76       26.61       26.44       26.26       26.06       25.83       25.58       25.29       24.93    
  25    28.12       28.12       28.11       28.09       28.07       28.05       28.01       27.98       27.93       27.88    
        27.83       27.77       27.70       27.63       27.55       27.46       27.37       27.26       27.15       27.03    
        26.90       26.76       26.61       26.44       26.26       26.06       25.83       25.58       25.29       24.93    
  26    28.12       28.12       28.11       28.09       28.07       28.05       28.01       27.98       27.93       27.88    
        27.83       27.77       27.70       27.63       27.55       27.46       27.37       27.26       27.15       27.03    
        26.90       26.76       26.61       26.44       26.26       26.06       25.83       25.58       25.29       24.93    
  27    28.12       28.12       28.11       28.09       28.07       28.05       28.01       27.98       27.93       27.88    
        27.83       27.77       27.70       27.63       27.55       27.46       27.37       27.26       27.15       27.03    
        26.90       26.76       26.61       26.44       26.26       26.06       25.83       25.58       25.29       24.93    
  28    28.12       28.12       28.11       28.09       28.07       28.05       28.01       27.98       27.93       27.88    
        27.83       27.77       27.70       27.63       27.55       27.46       27.37       27.26       27.15       27.03    
        26.90       26.76       26.61       26.44       26.26       26.06       25.83       25.58       25.29       24.93    
  29    28.12       28.12       28.11       28.09       28.07       28.05       28.01       27.98       27.93       27.88    
        27.83       27.77       27.70       27.63       27.55       27.46       27.37       27.26       27.15       27.03    
        26.90       26.76       26.61       26.44       26.26       26.06       25.83       25.58       25.29       24.93    
  30    28.12       28.12       28.11       28.09       28.07       28.05       28.01       27.98       27.93       27.88    
        27.83       27.77       27.70       27.63       27.55       27.46       27.37       27.26       27.15       27.03    
        26.90       26.76       26.61       26.44       26.26       26.06       25.83       25.58       25.29       24.93    

 HEAD WILL BE SAVED ON UNIT 1017 AT END OF TIME STEP   10, STRESS PERIOD   27


  VOLUME BUDGET FOR ENTIRE MODEL AT END OF TIME STEP   10, STRESS PERIOD  27
  ---------------------------------------------------------------------------------------------------

     CUMULATIVE VOLUME      L**3       RATES FOR THIS TIME STEP      L**3/T          PACKAGE NAME    
     ------------------                 ------------------------                     ----------------

           IN:                                      IN:
           ---                                      ---
              STO-SS =          41.9546                STO-SS =           0.0000     STORAGE         
              STO-SY =       27058.3843                STO-SY =           0.0000     STORAGE         
                 RCH =      134671.2768                   RCH =         214.5203     RCHA            
                 CHD =        2273.1987                   CHD =           0.0000     CHD             

            TOTAL IN =      164044.8145              TOTAL IN =         214.5203

          OUT:                                     OUT:
          ----                                     ----
              STO-SS =          37.5130                STO-SS =       3.6355E-02     STORAGE         
              STO-SY =       24429.9613                STO-SY =          23.2707     STORAGE         
                 RCH =           0.0000                   RCH =           0.0000     RCHA            
                 CHD =      139577.2927                   CHD =         191.2172     CHD             

           TOTAL OUT =      164044.7670             TOTAL OUT =         214.5242

            IN - OUT =       4.7529E-02              IN - OUT =      -3.9913E-03

 PERCENT DISCREPANCY =           0.00     PERCENT DISCREPANCY =          -0.00




         TIME SUMMARY AT END OF TIME STEP   10 IN STRESS PERIOD   27
                    SECONDS     MINUTES      HOURS       DAYS        YEARS
                    -----------------------------------------------------------
   TIME STEP LENGTH 2.59200E+05  4320.0      72.000      3.0000     8.21355E-03
 STRESS PERIOD TIME 2.59200E+06  43200.      720.00      30.000     8.21355E-02
         TOTAL TIME 6.74784E+07 1.12464E+06  18744.      781.00      2.1383    

 OUTPUT CONTROL FOR STRESS PERIOD 28 IS REPEATED USING SETTINGS FROM A PREVIOUS STRESS PERIOD.


 STRESS PERIOD 28 IS TRANSIENT


                 RECHARGE =  0.1643840E-02
 UBDSV1 SAVING           STO-SS ON UNIT   1016 AT TIME STEP      1, STRESS PERIOD     28
 UBDSV1 SAVING           STO-SY ON UNIT   1016 AT TIME STEP      1, STRESS PERIOD     28
 UBDSV1 SAVING     FLOW-JA-FACE ON UNIT   1016 AT TIME STEP      1, STRESS PERIOD     28
 UBDSV06 SAVING              RCH IN MODEL TEST_TRANS       PACKAGE TEST_TRANS      CONNECTED TO MODEL TEST_TRANS       PACKAGE RCHA             ON UNIT   1016 AT TIME STEP      1, STRESS PERIOD     28
 UBDSV06 SAVING              CHD IN MODEL TEST_TRANS       PACKAGE TEST_TRANS      CONNECTED TO MODEL TEST_TRANS       PACKAGE CHD              ON UNIT   1016 AT TIME STEP      1, STRESS PERIOD     28
1
  HEAD IN LAYER   1 AT END OF TIME STEP   1 IN STRESS PERIOD   28
  ---------------------------------------------------------------------------

            1           2           3           4           5           6           7           8           9          10
           11          12          13          14          15          16          17          18          19          20
           21          22          23          24          25          26          27          28          29          30
 ........................................................................................................................
   1    28.11       28.11       28.10       28.08       28.06       28.04       28.00       27.97       27.92       27.88    
        27.82       27.76       27.69       27.62       27.54       27.45       27.36       27.26       27.15       27.03    
        26.90       26.76       26.60       26.44       26.26       26.06       25.84       25.60       25.34       25.05    
   2    28.11       28.11       28.10       28.08       28.06       28.04       28.00       27.97       27.92       27.88    
        27.82       27.76       27.69       27.62       27.54       27.45       27.36       27.26       27.15       27.03    
        26.90       26.76       26.60       26.44       26.26       26.06       25.84       25.60       25.34       25.05    
   3    28.11       28.11       28.10       28.08       28.06       28.04       28.00       27.97       27.92       27.88    
        27.82       27.76       27.69       27.62       27.54       27.45       27.36       27.26       27.15       27.03    
        26.90       26.76       26.60       26.44       26.26       26.06       25.84       25.60       25.34       25.05    
   4    28.11       28.11       28.10       28.08       28.06       28.04       28.00       27.97       27.92       27.88    
        27.82       27.76       27.69       27.62       27.54       27.45       27.36       27.26       27.15       27.03    
        26.90       26.76       26.60       26.44       26.26       26.06       25.84       25.60       25.34       25.05    
   5    28.11       28.11       28.10       28.08       28.06       28.04       28.00       27.97       27.92       27.88    
        27.82       27.76       27.69       27.62       27.54       27.45       27.36       27.26       27.15       27.03    
        26.90       26.76       26.60       26.44       26.26       26.06       25.84       25.60       25.34       25.05    
   6    28.11       28.11       28.10       28.08       28.06       28.04       28.00       27.97       27.92       27.88    
        27.82       27.76       27.69       27.62       27.54       27.45       27.36       27.26       27.15       27.03    
        26.90       26.76       26.60       26.44       26.26       26.06       25.84       25.60       25.34       25.05    
   7    28.11       28.11       28.10       28.08       28.06       28.04       28.00       27.97       27.92       27.88    
        27.82       27.76       27.69       27.62       27.54       27.45       27.36       27.26       27.15       27.03    
        26.90       26.76       26.60       26.44       26.26       26.06       25.84       25.60       25.34       25.05    
   8    28.11       28.11       28.10       28.08       28.06       28.04       28.00       27.97       27.92       27.88    
        27.82       27.76       27.69       27.62       27.54       27.45       27.36       27.26       27.15       27.03    
        26.90       26.76       26.60       26.44       26.26       26.06       25.84       25.60       25.34       25.05    
   9    28.11       28.11       28.10       28.08       28.06       28.04       28.00       27.97       27.92       27.88    
        27.82       27.76       27.69       27.62       27.54       27.45       27.36       27.26       27.15       27.03    
        26.90       26.76       26.60       26.44       26.26       26.06       25.84       25.60       25.34       25.05    
  10    28.11       28.11       28.10       28.08       28.06       28.04       28.00       27.97       27.92       27.88    
        27.82       27.76       27.69       27.62       27.54       27.45       27.36       27.26       27.15       27.03    
        26.90       26.76       26.60       26.44       26.26       26.06       25.84       25.60       25.34       25.05    
  11    28.11       28.11       28.10       28.08       28.06       28.04       28.00       27.97       27.92       27.88    
        27.82       27.76       27.69       27.62       27.54       27.45       27.36       27.26       27.15       27.03    
        26.90       26.76       26.60       26.44       26.26       26.06       25.84       25.60       25.34       25.05    
  12    28.11       28.11       28.10       28.08       28.06       28.04       28.00       27.97       27.92       27.88    
        27.82       27.76       27.69       27.62       27.54       27.45       27.36       27.26       27.15       27.03    
        26.90       26.76       26.60       26.44       26.26       26.06       25.84       25.60       25.34       25.05    
  13    28.11       28.11       28.10       28.08       28.06       28.04       28.00       27.97       27.92       27.88    
        27.82       27.76       27.69       27.62       27.54       27.45       27.36       27.26       27.15       27.03    
        26.90       26.76       26.60       26.44       26.26       26.06       25.84       25.60       25.34       25.05    
  14    28.11       28.11       28.10       28.08       28.06       28.04       28.00       27.97       27.92       27.88    
        27.82       27.76       27.69       27.62       27.54       27.45       27.36       27.26       27.15       27.03    
        26.90       26.76       26.60       26.44       26.26       26.06       25.84       25.60       25.34       25.05    
  15    28.11       28.11       28.10       28.08       28.06       28.04       28.00       27.97       27.92       27.88    
        27.82       27.76       27.69       27.62       27.54       27.45       27.36       27.26       27.15       27.03    
        26.90       26.76       26.60       26.44       26.26       26.06       25.84       25.60       25.34       25.05    
  16    28.11       28.11       28.10       28.08       28.06       28.04       28.00       27.97       27.92       27.88    
        27.82       27.76       27.69       27.62       27.54       27.45       27.36       27.26       27.15       27.03    
        26.90       26.76       26.60       26.44       26.26       26.06       25.84       25.60       25.34       25.05    
  17    28.11       28.11       28.10       28.08       28.06       28.04       28.00       27.97       27.92       27.88    
        27.82       27.76       27.69       27.62       27.54       27.45       27.36       27.26       27.15       27.03    
        26.90       26.76       26.60       26.44       26.26       26.06       25.84       25.60       25.34       25.05    
  18    28.11       28.11       28.10       28.08       28.06       28.04       28.00       27.97       27.92       27.88    
        27.82       27.76       27.69       27.62       27.54       27.45       27.36       27.26       27.15       27.03    
        26.90       26.76       26.60       26.44       26.26       26.06       25.84       25.60       25.34       25.05    
  19    28.11       28.11       28.10       28.08       28.06       28.04       28.00       27.97       27.92       27.88    
        27.82       27.76       27.69       27.62       27.54       27.45       27.36       27.26       27.15       27.03    
        26.90       26.76       26.60       26.44       26.26       26.06       25.84       25.60       25.34       25.05    
  20    28.11       28.11       28.10       28.08       28.06       28.04       28.00       27.97       27.92       27.88    
        27.82       27.76       27.69       27.62       27.54       27.45       27.36       27.26       27.15       27.03    
        26.90       26.76       26.60       26.44       26.26       26.06       25.84       25.60       25.34       25.05    
  21    28.11       28.11       28.10       28.08       28.06       28.04       28.00       27.97       27.92       27.88    
        27.82       27.76       27.69       27.62       27.54       27.45       27.36       27.26       27.15       27.03    
        26.90       26.76       26.60       26.44       26.26       26.06       25.84       25.60       25.34       25.05    
  22    28.11       28.11       28.10       28.08       28.06       28.04       28.00       27.97       27.92       27.88    
        27.82       27.76       27.69       27.62       27.54       27.45       27.36       27.26       27.15       27.03    
        26.90       26.76       26.60       26.44       26.26       26.06       25.84       25.60       25.34       25.05    
  23    28.11       28.11       28.10       28.08       28.06       28.04       28.00       27.97       27.92       27.88    
        27.82       27.76       27.69       27.62       27.54       27.45       27.36       27.26       27.15       27.03    
        26.90       26.76       26.60       26.44       26.26       26.06       25.84       25.60       25.34       25.05    
  24    28.11       28.11       28.10       28.08       28.06       28.04       28.00       27.97       27.92       27.88    
        27.82       27.76       27.69       27.62       27.54       27.45       27.36       27.26       27.15       27.03    
        26.90       26.76       26.60       26.44       26.26       26.06       25.84       25.60       25.34       25.05    
  25    28.11       28.11       28.10       28.08       28.06       28.04       28.00       27.97       27.92       27.88    
        27.82       27.76       27.69       27.62       27.54       27.45       27.36       27.26       27.15       27.03    
        26.90       26.76       26.60       26.44       26.26       26.06       25.84       25.60       25.34       25.05    
  26    28.11       28.11       28.10       28.08       28.06       28.04       28.00       27.97       27.92       27.88    
        27.82       27.76       27.69       27.62       27.54       27.45       27.36       27.26       27.15       27.03    
        26.90       26.76       26.60       26.44       26.26       26.06       25.84       25.60       25.34       25.05    
  27    28.11       28.11       28.10       28.08       28.06       28.04       28.00       27.97       27.92       27.88    
        27.82       27.76       27.69       27.62       27.54       27.45       27.36       27.26       27.15       27.03    
        26.90       26.76       26.60       26.44       26.26       26.06       25.84       25.60       25.34       25.05    
  28    28.11       28.11       28.10       28.08       28.06       28.04       28.00       27.97       27.92       27.88    
        27.82       27.76       27.69       27.62       27.54       27.45       27.36       27.26       27.15       27.03    
        26.90       26.76       26.60       26.44       26.26       26.06       25.84       25.60       25.34       25.05    
  29    28.11       28.11       28.10       28.08       28.06       28.04       28.00       27.97       27.92       27.88    
        27.82       27.76       27.69       27.62       27.54       27.45       27.36       27.26       27.15       27.03    
        26.90       26.76       26.60       26.44       26.26       26.06       25.84       25.60       25.34       25.05    
  30    28.11       28.11       28.10       28.08       28.06       28.04       28.00       27.97       27.92       27.88    
        27.82       27.76       27.69       27.62       27.54       27.45       27.36       27.26       27.15       27.03    
        26.90       26.76       26.60       26.44       26.26       26.06       25.84       25.60       25.34       25.05    

 HEAD WILL BE SAVED ON UNIT 1017 AT END OF TIME STEP    1, STRESS PERIOD   28



         TIME SUMMARY AT END OF TIME STEP    1 IN STRESS PERIOD   28
                    SECONDS     MINUTES      HOURS       DAYS        YEARS
                    -----------------------------------------------------------
   TIME STEP LENGTH 2.59200E+05  4320.0      72.000      3.0000     8.21355E-03
 STRESS PERIOD TIME 2.59200E+05  4320.0      72.000      3.0000     8.21355E-03
         TOTAL TIME 6.77376E+07 1.12896E+06  18816.      784.00      2.1465    
 UBDSV1 SAVING           STO-SS ON UNIT   1016 AT TIME STEP      2, STRESS PERIOD     28
 UBDSV1 SAVING           STO-SY ON UNIT   1016 AT TIME STEP      2, STRESS PERIOD     28
 UBDSV1 SAVING     FLOW-JA-FACE ON UNIT   1016 AT TIME STEP      2, STRESS PERIOD     28
 UBDSV06 SAVING              RCH IN MODEL TEST_TRANS       PACKAGE TEST_TRANS      CONNECTED TO MODEL TEST_TRANS       PACKAGE RCHA             ON UNIT   1016 AT TIME STEP      2, STRESS PERIOD     28
 UBDSV06 SAVING              CHD IN MODEL TEST_TRANS       PACKAGE TEST_TRANS      CONNECTED TO MODEL TEST_TRANS       PACKAGE CHD              ON UNIT   1016 AT TIME STEP      2, STRESS PERIOD     28

 HEAD WILL BE SAVED ON UNIT 1017 AT END OF TIME STEP    2, STRESS PERIOD   28
 UBDSV1 SAVING           STO-SS ON UNIT   1016 AT TIME STEP      3, STRESS PERIOD     28
 UBDSV1 SAVING           STO-SY ON UNIT   1016 AT TIME STEP      3, STRESS PERIOD     28
 UBDSV1 SAVING     FLOW-JA-FACE ON UNIT   1016 AT TIME STEP      3, STRESS PERIOD     28
 UBDSV06 SAVING              RCH IN MODEL TEST_TRANS       PACKAGE TEST_TRANS      CONNECTED TO MODEL TEST_TRANS       PACKAGE RCHA             ON UNIT   1016 AT TIME STEP      3, STRESS PERIOD     28
 UBDSV06 SAVING              CHD IN MODEL TEST_TRANS       PACKAGE TEST_TRANS      CONNECTED TO MODEL TEST_TRANS       PACKAGE CHD              ON UNIT   1016 AT TIME STEP      3, STRESS PERIOD     28

 HEAD WILL BE SAVED ON UNIT 1017 AT END OF TIME STEP    3, STRESS PERIOD   28
 UBDSV1 SAVING           STO-SS ON UNIT   1016 AT TIME STEP      4, STRESS PERIOD     28
 UBDSV1 SAVING           STO-SY ON UNIT   1016 AT TIME STEP      4, STRESS PERIOD     28
 UBDSV1 SAVING     FLOW-JA-FACE ON UNIT   1016 AT TIME STEP      4, STRESS PERIOD     28
 UBDSV06 SAVING              RCH IN MODEL TEST_TRANS       PACKAGE TEST_TRANS      CONNECTED TO MODEL TEST_TRANS       PACKAGE RCHA             ON UNIT   1016 AT TIME STEP      4, STRESS PERIOD     28
 UBDSV06 SAVING              CHD IN MODEL TEST_TRANS       PACKAGE TEST_TRANS      CONNECTED TO MODEL TEST_TRANS       PACKAGE CHD              ON UNIT   1016 AT TIME STEP      4, STRESS PERIOD     28

 HEAD WILL BE SAVED ON UNIT 1017 AT END OF TIME STEP    4, STRESS PERIOD   28
 UBDSV1 SAVING           STO-SS ON UNIT   1016 AT TIME STEP      5, STRESS PERIOD     28
 UBDSV1 SAVING           STO-SY ON UNIT   1016 AT TIME STEP      5, STRESS PERIOD     28
 UBDSV1 SAVING     FLOW-JA-FACE ON UNIT   1016 AT TIME STEP      5, STRESS PERIOD     28
 UBDSV06 SAVING              RCH IN MODEL TEST_TRANS       PACKAGE TEST_TRANS      CONNECTED TO MODEL TEST_TRANS       PACKAGE RCHA             ON UNIT   1016 AT TIME STEP      5, STRESS PERIOD     28
 UBDSV06 SAVING              CHD IN MODEL TEST_TRANS       PACKAGE TEST_TRANS      CONNECTED TO MODEL TEST_TRANS       PACKAGE CHD              ON UNIT   1016 AT TIME STEP      5, STRESS PERIOD     28

 HEAD WILL BE SAVED ON UNIT 1017 AT END OF TIME STEP    5, STRESS PERIOD   28
 UBDSV1 SAVING           STO-SS ON UNIT   1016 AT TIME STEP      6, STRESS PERIOD     28
 UBDSV1 SAVING           STO-SY ON UNIT   1016 AT TIME STEP      6, STRESS PERIOD     28
 UBDSV1 SAVING     FLOW-JA-FACE ON UNIT   1016 AT TIME STEP      6, STRESS PERIOD     28
 UBDSV06 SAVING              RCH IN MODEL TEST_TRANS       PACKAGE TEST_TRANS      CONNECTED TO MODEL TEST_TRANS       PACKAGE RCHA             ON UNIT   1016 AT TIME STEP      6, STRESS PERIOD     28
 UBDSV06 SAVING              CHD IN MODEL TEST_TRANS       PACKAGE TEST_TRANS      CONNECTED TO MODEL TEST_TRANS       PACKAGE CHD              ON UNIT   1016 AT TIME STEP      6, STRESS PERIOD     28

 HEAD WILL BE SAVED ON UNIT 1017 AT END OF TIME STEP    6, STRESS PERIOD   28
 UBDSV1 SAVING           STO-SS ON UNIT   1016 AT TIME STEP      7, STRESS PERIOD     28
 UBDSV1 SAVING           STO-SY ON UNIT   1016 AT TIME STEP      7, STRESS PERIOD     28
 UBDSV1 SAVING     FLOW-JA-FACE ON UNIT   1016 AT TIME STEP      7, STRESS PERIOD     28
 UBDSV06 SAVING              RCH IN MODEL TEST_TRANS       PACKAGE TEST_TRANS      CONNECTED TO MODEL TEST_TRANS       PACKAGE RCHA             ON UNIT   1016 AT TIME STEP      7, STRESS PERIOD     28
 UBDSV06 SAVING              CHD IN MODEL TEST_TRANS       PACKAGE TEST_TRANS      CONNECTED TO MODEL TEST_TRANS       PACKAGE CHD              ON UNIT   1016 AT TIME STEP      7, STRESS PERIOD     28

 HEAD WILL BE SAVED ON UNIT 1017 AT END OF TIME STEP    7, STRESS PERIOD   28
 UBDSV1 SAVING           STO-SS ON UNIT   1016 AT TIME STEP      8, STRESS PERIOD     28
 UBDSV1 SAVING           STO-SY ON UNIT   1016 AT TIME STEP      8, STRESS PERIOD     28
 UBDSV1 SAVING     FLOW-JA-FACE ON UNIT   1016 AT TIME STEP      8, STRESS PERIOD     28
 UBDSV06 SAVING              RCH IN MODEL TEST_TRANS       PACKAGE TEST_TRANS      CONNECTED TO MODEL TEST_TRANS       PACKAGE RCHA             ON UNIT   1016 AT TIME STEP      8, STRESS PERIOD     28
 UBDSV06 SAVING              CHD IN MODEL TEST_TRANS       PACKAGE TEST_TRANS      CONNECTED TO MODEL TEST_TRANS       PACKAGE CHD              ON UNIT   1016 AT TIME STEP      8, STRESS PERIOD     28

 HEAD WILL BE SAVED ON UNIT 1017 AT END OF TIME STEP    8, STRESS PERIOD   28
 UBDSV1 SAVING           STO-SS ON UNIT   1016 AT TIME STEP      9, STRESS PERIOD     28
 UBDSV1 SAVING           STO-SY ON UNIT   1016 AT TIME STEP      9, STRESS PERIOD     28
 UBDSV1 SAVING     FLOW-JA-FACE ON UNIT   1016 AT TIME STEP      9, STRESS PERIOD     28
 UBDSV06 SAVING              RCH IN MODEL TEST_TRANS       PACKAGE TEST_TRANS      CONNECTED TO MODEL TEST_TRANS       PACKAGE RCHA             ON UNIT   1016 AT TIME STEP      9, STRESS PERIOD     28
 UBDSV06 SAVING              CHD IN MODEL TEST_TRANS       PACKAGE TEST_TRANS      CONNECTED TO MODEL TEST_TRANS       PACKAGE CHD              ON UNIT   1016 AT TIME STEP      9, STRESS PERIOD     28

 HEAD WILL BE SAVED ON UNIT 1017 AT END OF TIME STEP    9, STRESS PERIOD   28
 UBDSV1 SAVING           STO-SS ON UNIT   1016 AT TIME STEP     10, STRESS PERIOD     28
 UBDSV1 SAVING           STO-SY ON UNIT   1016 AT TIME STEP     10, STRESS PERIOD     28
 UBDSV1 SAVING     FLOW-JA-FACE ON UNIT   1016 AT TIME STEP     10, STRESS PERIOD     28
 UBDSV06 SAVING              RCH IN MODEL TEST_TRANS       PACKAGE TEST_TRANS      CONNECTED TO MODEL TEST_TRANS       PACKAGE RCHA             ON UNIT   1016 AT TIME STEP     10, STRESS PERIOD     28
 UBDSV06 SAVING              CHD IN MODEL TEST_TRANS       PACKAGE TEST_TRANS      CONNECTED TO MODEL TEST_TRANS       PACKAGE CHD              ON UNIT   1016 AT TIME STEP     10, STRESS PERIOD     28
1
  HEAD IN LAYER   1 AT END OF TIME STEP  10 IN STRESS PERIOD   28
  ---------------------------------------------------------------------------

            1           2           3           4           5           6           7           8           9          10
           11          12          13          14          15          16          17          18          19          20
           21          22          23          24          25          26          27          28          29          30
 ........................................................................................................................
   1    28.03       28.03       28.02       28.00       27.98       27.96       27.93       27.89       27.85       27.80    
        27.75       27.69       27.63       27.56       27.48       27.40       27.30       27.21       27.10       26.98    
        26.86       26.72       26.58       26.42       26.25       26.06       25.85       25.62       25.35       25.05    
   2    28.03       28.03       28.02       28.00       27.98       27.96       27.93       27.89       27.85       27.80    
        27.75       27.69       27.63       27.56       27.48       27.40       27.30       27.21       27.10       26.98    
        26.86       26.72       26.58       26.42       26.25       26.06       25.85       25.62       25.35       25.05    
   3    28.03       28.03       28.02       28.00       27.98       27.96       27.93       27.89       27.85       27.80    
        27.75       27.69       27.63       27.56       27.48       27.40       27.30       27.21       27.10       26.98    
        26.86       26.72       26.58       26.42       26.25       26.06       25.85       25.62       25.35       25.05    
   4    28.03       28.03       28.02       28.00       27.98       27.96       27.93       27.89       27.85       27.80    
        27.75       27.69       27.63       27.56       27.48       27.40       27.30       27.21       27.10       26.98    
        26.86       26.72       26.58       26.42       26.25       26.06       25.85       25.62       25.35       25.05    
   5    28.03       28.03       28.02       28.00       27.98       27.96       27.93       27.89       27.85       27.80    
        27.75       27.69       27.63       27.56       27.48       27.40       27.30       27.21       27.10       26.98    
        26.86       26.72       26.58       26.42       26.25       26.06       25.85       25.62       25.35       25.05    
   6    28.03       28.03       28.02       28.00       27.98       27.96       27.93       27.89       27.85       27.80    
        27.75       27.69       27.63       27.56       27.48       27.40       27.30       27.21       27.10       26.98    
        26.86       26.72       26.58       26.42       26.25       26.06       25.85       25.62       25.35       25.05    
   7    28.03       28.03       28.02       28.00       27.98       27.96       27.93       27.89       27.85       27.80    
        27.75       27.69       27.63       27.56       27.48       27.40       27.30       27.21       27.10       26.98    
        26.86       26.72       26.58       26.42       26.25       26.06       25.85       25.62       25.35       25.05    
   8    28.03       28.03       28.02       28.00       27.98       27.96       27.93       27.89       27.85       27.80    
        27.75       27.69       27.63       27.56       27.48       27.40       27.30       27.21       27.10       26.98    
        26.86       26.72       26.58       26.42       26.25       26.06       25.85       25.62       25.35       25.05    
   9    28.03       28.03       28.02       28.00       27.98       27.96       27.93       27.89       27.85       27.80    
        27.75       27.69       27.63       27.56       27.48       27.40       27.30       27.21       27.10       26.98    
        26.86       26.72       26.58       26.42       26.25       26.06       25.85       25.62       25.35       25.05    
  10    28.03       28.03       28.02       28.00       27.98       27.96       27.93       27.89       27.85       27.80    
        27.75       27.69       27.63       27.56       27.48       27.40       27.30       27.21       27.10       26.98    
        26.86       26.72       26.58       26.42       26.25       26.06       25.85       25.62       25.35       25.05    
  11    28.03       28.03       28.02       28.00       27.98       27.96       27.93       27.89       27.85       27.80    
        27.75       27.69       27.63       27.56       27.48       27.40       27.30       27.21       27.10       26.98    
        26.86       26.72       26.58       26.42       26.25       26.06       25.85       25.62       25.35       25.05    
  12    28.03       28.03       28.02       28.00       27.98       27.96       27.93       27.89       27.85       27.80    
        27.75       27.69       27.63       27.56       27.48       27.40       27.30       27.21       27.10       26.98    
        26.86       26.72       26.58       26.42       26.25       26.06       25.85       25.62       25.35       25.05    
  13    28.03       28.03       28.02       28.00       27.98       27.96       27.93       27.89       27.85       27.80    
        27.75       27.69       27.63       27.56       27.48       27.40       27.30       27.21       27.10       26.98    
        26.86       26.72       26.58       26.42       26.25       26.06       25.85       25.62       25.35       25.05    
  14    28.03       28.03       28.02       28.00       27.98       27.96       27.93       27.89       27.85       27.80    
        27.75       27.69       27.63       27.56       27.48       27.40       27.30       27.21       27.10       26.98    
        26.86       26.72       26.58       26.42       26.25       26.06       25.85       25.62       25.35       25.05    
  15    28.03       28.03       28.02       28.00       27.98       27.96       27.93       27.89       27.85       27.80    
        27.75       27.69       27.63       27.56       27.48       27.40       27.30       27.21       27.10       26.98    
        26.86       26.72       26.58       26.42       26.25       26.06       25.85       25.62       25.35       25.05    
  16    28.03       28.03       28.02       28.00       27.98       27.96       27.93       27.89       27.85       27.80    
        27.75       27.69       27.63       27.56       27.48       27.40       27.30       27.21       27.10       26.98    
        26.86       26.72       26.58       26.42       26.25       26.06       25.85       25.62       25.35       25.05    
  17    28.03       28.03       28.02       28.00       27.98       27.96       27.93       27.89       27.85       27.80    
        27.75       27.69       27.63       27.56       27.48       27.40       27.30       27.21       27.10       26.98    
        26.86       26.72       26.58       26.42       26.25       26.06       25.85       25.62       25.35       25.05    
  18    28.03       28.03       28.02       28.00       27.98       27.96       27.93       27.89       27.85       27.80    
        27.75       27.69       27.63       27.56       27.48       27.40       27.30       27.21       27.10       26.98    
        26.86       26.72       26.58       26.42       26.25       26.06       25.85       25.62       25.35       25.05    
  19    28.03       28.03       28.02       28.00       27.98       27.96       27.93       27.89       27.85       27.80    
        27.75       27.69       27.63       27.56       27.48       27.40       27.30       27.21       27.10       26.98    
        26.86       26.72       26.58       26.42       26.25       26.06       25.85       25.62       25.35       25.05    
  20    28.03       28.03       28.02       28.00       27.98       27.96       27.93       27.89       27.85       27.80    
        27.75       27.69       27.63       27.56       27.48       27.40       27.30       27.21       27.10       26.98    
        26.86       26.72       26.58       26.42       26.25       26.06       25.85       25.62       25.35       25.05    
  21    28.03       28.03       28.02       28.00       27.98       27.96       27.93       27.89       27.85       27.80    
        27.75       27.69       27.63       27.56       27.48       27.40       27.30       27.21       27.10       26.98    
        26.86       26.72       26.58       26.42       26.25       26.06       25.85       25.62       25.35       25.05    
  22    28.03       28.03       28.02       28.00       27.98       27.96       27.93       27.89       27.85       27.80    
        27.75       27.69       27.63       27.56       27.48       27.40       27.30       27.21       27.10       26.98    
        26.86       26.72       26.58       26.42       26.25       26.06       25.85       25.62       25.35       25.05    
  23    28.03       28.03       28.02       28.00       27.98       27.96       27.93       27.89       27.85       27.80    
        27.75       27.69       27.63       27.56       27.48       27.40       27.30       27.21       27.10       26.98    
        26.86       26.72       26.58       26.42       26.25       26.06       25.85       25.62       25.35       25.05    
  24    28.03       28.03       28.02       28.00       27.98       27.96       27.93       27.89       27.85       27.80    
        27.75       27.69       27.63       27.56       27.48       27.40       27.30       27.21       27.10       26.98    
        26.86       26.72       26.58       26.42       26.25       26.06       25.85       25.62       25.35       25.05    
  25    28.03       28.03       28.02       28.00       27.98       27.96       27.93       27.89       27.85       27.80    
        27.75       27.69       27.63       27.56       27.48       27.40       27.30       27.21       27.10       26.98    
        26.86       26.72       26.58       26.42       26.25       26.06       25.85       25.62       25.35       25.05    
  26    28.03       28.03       28.02       28.00       27.98       27.96       27.93       27.89       27.85       27.80    
        27.75       27.69       27.63       27.56       27.48       27.40       27.30       27.21       27.10       26.98    
        26.86       26.72       26.58       26.42       26.25       26.06       25.85       25.62       25.35       25.05    
  27    28.03       28.03       28.02       28.00       27.98       27.96       27.93       27.89       27.85       27.80    
        27.75       27.69       27.63       27.56       27.48       27.40       27.30       27.21       27.10       26.98    
        26.86       26.72       26.58       26.42       26.25       26.06       25.85       25.62       25.35       25.05    
  28    28.03       28.03       28.02       28.00       27.98       27.96       27.93       27.89       27.85       27.80    
        27.75       27.69       27.63       27.56       27.48       27.40       27.30       27.21       27.10       26.98    
        26.86       26.72       26.58       26.42       26.25       26.06       25.85       25.62       25.35       25.05    
  29    28.03       28.03       28.02       28.00       27.98       27.96       27.93       27.89       27.85       27.80    
        27.75       27.69       27.63       27.56       27.48       27.40       27.30       27.21       27.10       26.98    
        26.86       26.72       26.58       26.42       26.25       26.06       25.85       25.62       25.35       25.05    
  30    28.03       28.03       28.02       28.00       27.98       27.96       27.93       27.89       27.85       27.80    
        27.75       27.69       27.63       27.56       27.48       27.40       27.30       27.21       27.10       26.98    
        26.86       26.72       26.58       26.42       26.25       26.06       25.85       25.62       25.35       25.05    

 HEAD WILL BE SAVED ON UNIT 1017 AT END OF TIME STEP   10, STRESS PERIOD   28


  VOLUME BUDGET FOR ENTIRE MODEL AT END OF TIME STEP   10, STRESS PERIOD  28
  ---------------------------------------------------------------------------------------------------

     CUMULATIVE VOLUME      L**3       RATES FOR THIS TIME STEP      L**3/T          PACKAGE NAME    
     ------------------                 ------------------------                     ----------------

           IN:                                      IN:
           ---                                      ---
              STO-SS =          43.5987                STO-SS =       5.1279E-02     STORAGE         
              STO-SY =       28075.5802                STO-SY =          31.9169     STORAGE         
                 RCH =      138961.6992                   RCH =         143.0141     RCHA            
                 CHD =        2273.1987                   CHD =           0.0000     CHD             

            TOTAL IN =      169354.0768              TOTAL IN =         174.9823

          OUT:                                     OUT:
          ----                                     ----
              STO-SS =          37.6395                STO-SS =           0.0000     STORAGE         
              STO-SY =       24520.0112                STO-SY =           0.0000     STORAGE         
                 RCH =           0.0000                   RCH =           0.0000     RCHA            
                 CHD =      144796.0066                   CHD =         174.9579     CHD             

           TOTAL OUT =      169353.6572             TOTAL OUT =         174.9579

            IN - OUT =           0.4196              IN - OUT =       2.4426E-02

 PERCENT DISCREPANCY =           0.00     PERCENT DISCREPANCY =           0.01




         TIME SUMMARY AT END OF TIME STEP   10 IN STRESS PERIOD   28
                    SECONDS     MINUTES      HOURS       DAYS        YEARS
                    -----------------------------------------------------------
   TIME STEP LENGTH 2.59200E+05  4320.0      72.000      3.0000     8.21355E-03
 STRESS PERIOD TIME 2.59200E+06  43200.      720.00      30.000     8.21355E-02
         TOTAL TIME 7.00704E+07 1.16784E+06  19464.      811.00      2.2204    

 OUTPUT CONTROL FOR STRESS PERIOD 29 IS REPEATED USING SETTINGS FROM A PREVIOUS STRESS PERIOD.


 STRESS PERIOD 29 IS TRANSIENT


                 RECHARGE =  0.1232880E-02
 UBDSV1 SAVING           STO-SS ON UNIT   1016 AT TIME STEP      1, STRESS PERIOD     29
 UBDSV1 SAVING           STO-SY ON UNIT   1016 AT TIME STEP      1, STRESS PERIOD     29
 UBDSV1 SAVING     FLOW-JA-FACE ON UNIT   1016 AT TIME STEP      1, STRESS PERIOD     29
 UBDSV06 SAVING              RCH IN MODEL TEST_TRANS       PACKAGE TEST_TRANS      CONNECTED TO MODEL TEST_TRANS       PACKAGE RCHA             ON UNIT   1016 AT TIME STEP      1, STRESS PERIOD     29
 UBDSV06 SAVING              CHD IN MODEL TEST_TRANS       PACKAGE TEST_TRANS      CONNECTED TO MODEL TEST_TRANS       PACKAGE CHD              ON UNIT   1016 AT TIME STEP      1, STRESS PERIOD     29
1
  HEAD IN LAYER   1 AT END OF TIME STEP   1 IN STRESS PERIOD   29
  ---------------------------------------------------------------------------

            1           2           3           4           5           6           7           8           9          10
           11          12          13          14          15          16          17          18          19          20
           21          22          23          24          25          26          27          28          29          30
 ........................................................................................................................
   1    28.02       28.01       28.00       27.99       27.97       27.94       27.91       27.88       27.84       27.79    
        27.74       27.68       27.61       27.54       27.47       27.38       27.29       27.19       27.09       26.97    
        26.85       26.72       26.57       26.41       26.24       26.06       25.86       25.63       25.39       25.13    
   2    28.02       28.01       28.00       27.99       27.97       27.94       27.91       27.88       27.84       27.79    
        27.74       27.68       27.61       27.54       27.47       27.38       27.29       27.19       27.09       26.97    
        26.85       26.72       26.57       26.41       26.24       26.06       25.86       25.63       25.39       25.13    
   3    28.02       28.01       28.00       27.99       27.97       27.94       27.91       27.88       27.84       27.79    
        27.74       27.68       27.61       27.54       27.47       27.38       27.29       27.19       27.09       26.97    
        26.85       26.72       26.57       26.41       26.24       26.06       25.86       25.63       25.39       25.13    
   4    28.02       28.01       28.00       27.99       27.97       27.94       27.91       27.88       27.84       27.79    
        27.74       27.68       27.61       27.54       27.47       27.38       27.29       27.19       27.09       26.97    
        26.85       26.72       26.57       26.41       26.24       26.06       25.86       25.63       25.39       25.13    
   5    28.02       28.01       28.00       27.99       27.97       27.94       27.91       27.88       27.84       27.79    
        27.74       27.68       27.61       27.54       27.47       27.38       27.29       27.19       27.09       26.97    
        26.85       26.72       26.57       26.41       26.24       26.06       25.86       25.63       25.39       25.13    
   6    28.02       28.01       28.00       27.99       27.97       27.94       27.91       27.88       27.84       27.79    
        27.74       27.68       27.61       27.54       27.47       27.38       27.29       27.19       27.09       26.97    
        26.85       26.72       26.57       26.41       26.24       26.06       25.86       25.63       25.39       25.13    
   7    28.02       28.01       28.00       27.99       27.97       27.94       27.91       27.88       27.84       27.79    
        27.74       27.68       27.61       27.54       27.47       27.38       27.29       27.19       27.09       26.97    
        26.85       26.72       26.57       26.41       26.24       26.06       25.86       25.63       25.39       25.13    
   8    28.02       28.01       28.00       27.99       27.97       27.94       27.91       27.88       27.84       27.79    
        27.74       27.68       27.61       27.54       27.47       27.38       27.29       27.19       27.09       26.97    
        26.85       26.72       26.57       26.41       26.24       26.06       25.86       25.63       25.39       25.13    
   9    28.02       28.01       28.00       27.99       27.97       27.94       27.91       27.88       27.84       27.79    
        27.74       27.68       27.61       27.54       27.47       27.38       27.29       27.19       27.09       26.97    
        26.85       26.72       26.57       26.41       26.24       26.06       25.86       25.63       25.39       25.13    
  10    28.02       28.01       28.00       27.99       27.97       27.94       27.91       27.88       27.84       27.79    
        27.74       27.68       27.61       27.54       27.47       27.38       27.29       27.19       27.09       26.97    
        26.85       26.72       26.57       26.41       26.24       26.06       25.86       25.63       25.39       25.13    
  11    28.02       28.01       28.00       27.99       27.97       27.94       27.91       27.88       27.84       27.79    
        27.74       27.68       27.61       27.54       27.47       27.38       27.29       27.19       27.09       26.97    
        26.85       26.72       26.57       26.41       26.24       26.06       25.86       25.63       25.39       25.13    
  12    28.02       28.01       28.00       27.99       27.97       27.94       27.91       27.88       27.84       27.79    
        27.74       27.68       27.61       27.54       27.47       27.38       27.29       27.19       27.09       26.97    
        26.85       26.72       26.57       26.41       26.24       26.06       25.86       25.63       25.39       25.13    
  13    28.02       28.01       28.00       27.99       27.97       27.94       27.91       27.88       27.84       27.79    
        27.74       27.68       27.61       27.54       27.47       27.38       27.29       27.19       27.09       26.97    
        26.85       26.72       26.57       26.41       26.24       26.06       25.86       25.63       25.39       25.13    
  14    28.02       28.01       28.00       27.99       27.97       27.94       27.91       27.88       27.84       27.79    
        27.74       27.68       27.61       27.54       27.47       27.38       27.29       27.19       27.09       26.97    
        26.85       26.72       26.57       26.41       26.24       26.06       25.86       25.63       25.39       25.13    
  15    28.02       28.01       28.00       27.99       27.97       27.94       27.91       27.88       27.84       27.79    
        27.74       27.68       27.61       27.54       27.47       27.38       27.29       27.19       27.09       26.97    
        26.85       26.72       26.57       26.41       26.24       26.06       25.86       25.63       25.39       25.13    
  16    28.02       28.01       28.00       27.99       27.97       27.94       27.91       27.88       27.84       27.79    
        27.74       27.68       27.61       27.54       27.47       27.38       27.29       27.19       27.09       26.97    
        26.85       26.72       26.57       26.41       26.24       26.06       25.86       25.63       25.39       25.13    
  17    28.02       28.01       28.00       27.99       27.97       27.94       27.91       27.88       27.84       27.79    
        27.74       27.68       27.61       27.54       27.47       27.38       27.29       27.19       27.09       26.97    
        26.85       26.72       26.57       26.41       26.24       26.06       25.86       25.63       25.39       25.13    
  18    28.02       28.01       28.00       27.99       27.97       27.94       27.91       27.88       27.84       27.79    
        27.74       27.68       27.61       27.54       27.47       27.38       27.29       27.19       27.09       26.97    
        26.85       26.72       26.57       26.41       26.24       26.06       25.86       25.63       25.39       25.13    
  19    28.02       28.01       28.00       27.99       27.97       27.94       27.91       27.88       27.84       27.79    
        27.74       27.68       27.61       27.54       27.47       27.38       27.29       27.19       27.09       26.97    
        26.85       26.72       26.57       26.41       26.24       26.06       25.86       25.63       25.39       25.13    
  20    28.02       28.01       28.00       27.99       27.97       27.94       27.91       27.88       27.84       27.79    
        27.74       27.68       27.61       27.54       27.47       27.38       27.29       27.19       27.09       26.97    
        26.85       26.72       26.57       26.41       26.24       26.06       25.86       25.63       25.39       25.13    
  21    28.02       28.01       28.00       27.99       27.97       27.94       27.91       27.88       27.84       27.79    
        27.74       27.68       27.61       27.54       27.47       27.38       27.29       27.19       27.09       26.97    
        26.85       26.72       26.57       26.41       26.24       26.06       25.86       25.63       25.39       25.13    
  22    28.02       28.01       28.00       27.99       27.97       27.94       27.91       27.88       27.84       27.79    
        27.74       27.68       27.61       27.54       27.47       27.38       27.29       27.19       27.09       26.97    
        26.85       26.72       26.57       26.41       26.24       26.06       25.86       25.63       25.39       25.13    
  23    28.02       28.01       28.00       27.99       27.97       27.94       27.91       27.88       27.84       27.79    
        27.74       27.68       27.61       27.54       27.47       27.38       27.29       27.19       27.09       26.97    
        26.85       26.72       26.57       26.41       26.24       26.06       25.86       25.63       25.39       25.13    
  24    28.02       28.01       28.00       27.99       27.97       27.94       27.91       27.88       27.84       27.79    
        27.74       27.68       27.61       27.54       27.47       27.38       27.29       27.19       27.09       26.97    
        26.85       26.72       26.57       26.41       26.24       26.06       25.86       25.63       25.39       25.13    
  25    28.02       28.01       28.00       27.99       27.97       27.94       27.91       27.88       27.84       27.79    
        27.74       27.68       27.61       27.54       27.47       27.38       27.29       27.19       27.09       26.97    
        26.85       26.72       26.57       26.41       26.24       26.06       25.86       25.63       25.39       25.13    
  26    28.02       28.01       28.00       27.99       27.97       27.94       27.91       27.88       27.84       27.79    
        27.74       27.68       27.61       27.54       27.47       27.38       27.29       27.19       27.09       26.97    
        26.85       26.72       26.57       26.41       26.24       26.06       25.86       25.63       25.39       25.13    
  27    28.02       28.01       28.00       27.99       27.97       27.94       27.91       27.88       27.84       27.79    
        27.74       27.68       27.61       27.54       27.47       27.38       27.29       27.19       27.09       26.97    
        26.85       26.72       26.57       26.41       26.24       26.06       25.86       25.63       25.39       25.13    
  28    28.02       28.01       28.00       27.99       27.97       27.94       27.91       27.88       27.84       27.79    
        27.74       27.68       27.61       27.54       27.47       27.38       27.29       27.19       27.09       26.97    
        26.85       26.72       26.57       26.41       26.24       26.06       25.86       25.63       25.39       25.13    
  29    28.02       28.01       28.00       27.99       27.97       27.94       27.91       27.88       27.84       27.79    
        27.74       27.68       27.61       27.54       27.47       27.38       27.29       27.19       27.09       26.97    
        26.85       26.72       26.57       26.41       26.24       26.06       25.86       25.63       25.39       25.13    
  30    28.02       28.01       28.00       27.99       27.97       27.94       27.91       27.88       27.84       27.79    
        27.74       27.68       27.61       27.54       27.47       27.38       27.29       27.19       27.09       26.97    
        26.85       26.72       26.57       26.41       26.24       26.06       25.86       25.63       25.39       25.13    

 HEAD WILL BE SAVED ON UNIT 1017 AT END OF TIME STEP    1, STRESS PERIOD   29



         TIME SUMMARY AT END OF TIME STEP    1 IN STRESS PERIOD   29
                    SECONDS     MINUTES      HOURS       DAYS        YEARS
                    -----------------------------------------------------------
   TIME STEP LENGTH 2.59200E+05  4320.0      72.000      3.0000     8.21355E-03
 STRESS PERIOD TIME 2.59200E+05  4320.0      72.000      3.0000     8.21355E-03
         TOTAL TIME 7.03296E+07 1.17216E+06  19536.      814.00      2.2286    
 UBDSV1 SAVING           STO-SS ON UNIT   1016 AT TIME STEP      2, STRESS PERIOD     29
 UBDSV1 SAVING           STO-SY ON UNIT   1016 AT TIME STEP      2, STRESS PERIOD     29
 UBDSV1 SAVING     FLOW-JA-FACE ON UNIT   1016 AT TIME STEP      2, STRESS PERIOD     29
 UBDSV06 SAVING              RCH IN MODEL TEST_TRANS       PACKAGE TEST_TRANS      CONNECTED TO MODEL TEST_TRANS       PACKAGE RCHA             ON UNIT   1016 AT TIME STEP      2, STRESS PERIOD     29
 UBDSV06 SAVING              CHD IN MODEL TEST_TRANS       PACKAGE TEST_TRANS      CONNECTED TO MODEL TEST_TRANS       PACKAGE CHD              ON UNIT   1016 AT TIME STEP      2, STRESS PERIOD     29

 HEAD WILL BE SAVED ON UNIT 1017 AT END OF TIME STEP    2, STRESS PERIOD   29
 UBDSV1 SAVING           STO-SS ON UNIT   1016 AT TIME STEP      3, STRESS PERIOD     29
 UBDSV1 SAVING           STO-SY ON UNIT   1016 AT TIME STEP      3, STRESS PERIOD     29
 UBDSV1 SAVING     FLOW-JA-FACE ON UNIT   1016 AT TIME STEP      3, STRESS PERIOD     29
 UBDSV06 SAVING              RCH IN MODEL TEST_TRANS       PACKAGE TEST_TRANS      CONNECTED TO MODEL TEST_TRANS       PACKAGE RCHA             ON UNIT   1016 AT TIME STEP      3, STRESS PERIOD     29
 UBDSV06 SAVING              CHD IN MODEL TEST_TRANS       PACKAGE TEST_TRANS      CONNECTED TO MODEL TEST_TRANS       PACKAGE CHD              ON UNIT   1016 AT TIME STEP      3, STRESS PERIOD     29

 HEAD WILL BE SAVED ON UNIT 1017 AT END OF TIME STEP    3, STRESS PERIOD   29
 UBDSV1 SAVING           STO-SS ON UNIT   1016 AT TIME STEP      4, STRESS PERIOD     29
 UBDSV1 SAVING           STO-SY ON UNIT   1016 AT TIME STEP      4, STRESS PERIOD     29
 UBDSV1 SAVING     FLOW-JA-FACE ON UNIT   1016 AT TIME STEP      4, STRESS PERIOD     29
 UBDSV06 SAVING              RCH IN MODEL TEST_TRANS       PACKAGE TEST_TRANS      CONNECTED TO MODEL TEST_TRANS       PACKAGE RCHA             ON UNIT   1016 AT TIME STEP      4, STRESS PERIOD     29
 UBDSV06 SAVING              CHD IN MODEL TEST_TRANS       PACKAGE TEST_TRANS      CONNECTED TO MODEL TEST_TRANS       PACKAGE CHD              ON UNIT   1016 AT TIME STEP      4, STRESS PERIOD     29

 HEAD WILL BE SAVED ON UNIT 1017 AT END OF TIME STEP    4, STRESS PERIOD   29
 UBDSV1 SAVING           STO-SS ON UNIT   1016 AT TIME STEP      5, STRESS PERIOD     29
 UBDSV1 SAVING           STO-SY ON UNIT   1016 AT TIME STEP      5, STRESS PERIOD     29
 UBDSV1 SAVING     FLOW-JA-FACE ON UNIT   1016 AT TIME STEP      5, STRESS PERIOD     29
 UBDSV06 SAVING              RCH IN MODEL TEST_TRANS       PACKAGE TEST_TRANS      CONNECTED TO MODEL TEST_TRANS       PACKAGE RCHA             ON UNIT   1016 AT TIME STEP      5, STRESS PERIOD     29
 UBDSV06 SAVING              CHD IN MODEL TEST_TRANS       PACKAGE TEST_TRANS      CONNECTED TO MODEL TEST_TRANS       PACKAGE CHD              ON UNIT   1016 AT TIME STEP      5, STRESS PERIOD     29

 HEAD WILL BE SAVED ON UNIT 1017 AT END OF TIME STEP    5, STRESS PERIOD   29
 UBDSV1 SAVING           STO-SS ON UNIT   1016 AT TIME STEP      6, STRESS PERIOD     29
 UBDSV1 SAVING           STO-SY ON UNIT   1016 AT TIME STEP      6, STRESS PERIOD     29
 UBDSV1 SAVING     FLOW-JA-FACE ON UNIT   1016 AT TIME STEP      6, STRESS PERIOD     29
 UBDSV06 SAVING              RCH IN MODEL TEST_TRANS       PACKAGE TEST_TRANS      CONNECTED TO MODEL TEST_TRANS       PACKAGE RCHA             ON UNIT   1016 AT TIME STEP      6, STRESS PERIOD     29
 UBDSV06 SAVING              CHD IN MODEL TEST_TRANS       PACKAGE TEST_TRANS      CONNECTED TO MODEL TEST_TRANS       PACKAGE CHD              ON UNIT   1016 AT TIME STEP      6, STRESS PERIOD     29

 HEAD WILL BE SAVED ON UNIT 1017 AT END OF TIME STEP    6, STRESS PERIOD   29
 UBDSV1 SAVING           STO-SS ON UNIT   1016 AT TIME STEP      7, STRESS PERIOD     29
 UBDSV1 SAVING           STO-SY ON UNIT   1016 AT TIME STEP      7, STRESS PERIOD     29
 UBDSV1 SAVING     FLOW-JA-FACE ON UNIT   1016 AT TIME STEP      7, STRESS PERIOD     29
 UBDSV06 SAVING              RCH IN MODEL TEST_TRANS       PACKAGE TEST_TRANS      CONNECTED TO MODEL TEST_TRANS       PACKAGE RCHA             ON UNIT   1016 AT TIME STEP      7, STRESS PERIOD     29
 UBDSV06 SAVING              CHD IN MODEL TEST_TRANS       PACKAGE TEST_TRANS      CONNECTED TO MODEL TEST_TRANS       PACKAGE CHD              ON UNIT   1016 AT TIME STEP      7, STRESS PERIOD     29

 HEAD WILL BE SAVED ON UNIT 1017 AT END OF TIME STEP    7, STRESS PERIOD   29
 UBDSV1 SAVING           STO-SS ON UNIT   1016 AT TIME STEP      8, STRESS PERIOD     29
 UBDSV1 SAVING           STO-SY ON UNIT   1016 AT TIME STEP      8, STRESS PERIOD     29
 UBDSV1 SAVING     FLOW-JA-FACE ON UNIT   1016 AT TIME STEP      8, STRESS PERIOD     29
 UBDSV06 SAVING              RCH IN MODEL TEST_TRANS       PACKAGE TEST_TRANS      CONNECTED TO MODEL TEST_TRANS       PACKAGE RCHA             ON UNIT   1016 AT TIME STEP      8, STRESS PERIOD     29
 UBDSV06 SAVING              CHD IN MODEL TEST_TRANS       PACKAGE TEST_TRANS      CONNECTED TO MODEL TEST_TRANS       PACKAGE CHD              ON UNIT   1016 AT TIME STEP      8, STRESS PERIOD     29

 HEAD WILL BE SAVED ON UNIT 1017 AT END OF TIME STEP    8, STRESS PERIOD   29
 UBDSV1 SAVING           STO-SS ON UNIT   1016 AT TIME STEP      9, STRESS PERIOD     29
 UBDSV1 SAVING           STO-SY ON UNIT   1016 AT TIME STEP      9, STRESS PERIOD     29
 UBDSV1 SAVING     FLOW-JA-FACE ON UNIT   1016 AT TIME STEP      9, STRESS PERIOD     29
 UBDSV06 SAVING              RCH IN MODEL TEST_TRANS       PACKAGE TEST_TRANS      CONNECTED TO MODEL TEST_TRANS       PACKAGE RCHA             ON UNIT   1016 AT TIME STEP      9, STRESS PERIOD     29
 UBDSV06 SAVING              CHD IN MODEL TEST_TRANS       PACKAGE TEST_TRANS      CONNECTED TO MODEL TEST_TRANS       PACKAGE CHD              ON UNIT   1016 AT TIME STEP      9, STRESS PERIOD     29

 HEAD WILL BE SAVED ON UNIT 1017 AT END OF TIME STEP    9, STRESS PERIOD   29
 UBDSV1 SAVING           STO-SS ON UNIT   1016 AT TIME STEP     10, STRESS PERIOD     29
 UBDSV1 SAVING           STO-SY ON UNIT   1016 AT TIME STEP     10, STRESS PERIOD     29
 UBDSV1 SAVING     FLOW-JA-FACE ON UNIT   1016 AT TIME STEP     10, STRESS PERIOD     29
 UBDSV06 SAVING              RCH IN MODEL TEST_TRANS       PACKAGE TEST_TRANS      CONNECTED TO MODEL TEST_TRANS       PACKAGE RCHA             ON UNIT   1016 AT TIME STEP     10, STRESS PERIOD     29
 UBDSV06 SAVING              CHD IN MODEL TEST_TRANS       PACKAGE TEST_TRANS      CONNECTED TO MODEL TEST_TRANS       PACKAGE CHD              ON UNIT   1016 AT TIME STEP     10, STRESS PERIOD     29
1
  HEAD IN LAYER   1 AT END OF TIME STEP  10 IN STRESS PERIOD   29
  ---------------------------------------------------------------------------

            1           2           3           4           5           6           7           8           9          10
           11          12          13          14          15          16          17          18          19          20
           21          22          23          24          25          26          27          28          29          30
 ........................................................................................................................
   1    27.90       27.90       27.89       27.87       27.85       27.83       27.80       27.76       27.72       27.68    
        27.63       27.57       27.51       27.44       27.37       27.29       27.20       27.11       27.01       26.90    
        26.78       26.66       26.52       26.37       26.21       26.04       25.85       25.63       25.40       25.13    
   2    27.90       27.90       27.89       27.87       27.85       27.83       27.80       27.76       27.72       27.68    
        27.63       27.57       27.51       27.44       27.37       27.29       27.20       27.11       27.01       26.90    
        26.78       26.66       26.52       26.37       26.21       26.04       25.85       25.63       25.40       25.13    
   3    27.90       27.90       27.89       27.87       27.85       27.83       27.80       27.76       27.72       27.68    
        27.63       27.57       27.51       27.44       27.37       27.29       27.20       27.11       27.01       26.90    
        26.78       26.66       26.52       26.37       26.21       26.04       25.85       25.63       25.40       25.13    
   4    27.90       27.90       27.89       27.87       27.85       27.83       27.80       27.76       27.72       27.68    
        27.63       27.57       27.51       27.44       27.37       27.29       27.20       27.11       27.01       26.90    
        26.78       26.66       26.52       26.37       26.21       26.04       25.85       25.63       25.40       25.13    
   5    27.90       27.90       27.89       27.87       27.85       27.83       27.80       27.76       27.72       27.68    
        27.63       27.57       27.51       27.44       27.37       27.29       27.20       27.11       27.01       26.90    
        26.78       26.66       26.52       26.37       26.21       26.04       25.85       25.63       25.40       25.13    
   6    27.90       27.90       27.89       27.87       27.85       27.83       27.80       27.76       27.72       27.68    
        27.63       27.57       27.51       27.44       27.37       27.29       27.20       27.11       27.01       26.90    
        26.78       26.66       26.52       26.37       26.21       26.04       25.85       25.63       25.40       25.13    
   7    27.90       27.90       27.89       27.87       27.85       27.83       27.80       27.76       27.72       27.68    
        27.63       27.57       27.51       27.44       27.37       27.29       27.20       27.11       27.01       26.90    
        26.78       26.66       26.52       26.37       26.21       26.04       25.85       25.63       25.40       25.13    
   8    27.90       27.90       27.89       27.87       27.85       27.83       27.80       27.76       27.72       27.68    
        27.63       27.57       27.51       27.44       27.37       27.29       27.20       27.11       27.01       26.90    
        26.78       26.66       26.52       26.37       26.21       26.04       25.85       25.63       25.40       25.13    
   9    27.90       27.90       27.89       27.87       27.85       27.83       27.80       27.76       27.72       27.68    
        27.63       27.57       27.51       27.44       27.37       27.29       27.20       27.11       27.01       26.90    
        26.78       26.66       26.52       26.37       26.21       26.04       25.85       25.63       25.40       25.13    
  10    27.90       27.90       27.89       27.87       27.85       27.83       27.80       27.76       27.72       27.68    
        27.63       27.57       27.51       27.44       27.37       27.29       27.20       27.11       27.01       26.90    
        26.78       26.66       26.52       26.37       26.21       26.04       25.85       25.63       25.40       25.13    
  11    27.90       27.90       27.89       27.87       27.85       27.83       27.80       27.76       27.72       27.68    
        27.63       27.57       27.51       27.44       27.37       27.29       27.20       27.11       27.01       26.90    
        26.78       26.66       26.52       26.37       26.21       26.04       25.85       25.63       25.40       25.13    
  12    27.90       27.90       27.89       27.87       27.85       27.83       27.80       27.76       27.72       27.68    
        27.63       27.57       27.51       27.44       27.37       27.29       27.20       27.11       27.01       26.90    
        26.78       26.66       26.52       26.37       26.21       26.04       25.85       25.63       25.40       25.13    
  13    27.90       27.90       27.89       27.87       27.85       27.83       27.80       27.76       27.72       27.68    
        27.63       27.57       27.51       27.44       27.37       27.29       27.20       27.11       27.01       26.90    
        26.78       26.66       26.52       26.37       26.21       26.04       25.85       25.63       25.40       25.13    
  14    27.90       27.90       27.89       27.87       27.85       27.83       27.80       27.76       27.72       27.68    
        27.63       27.57       27.51       27.44       27.37       27.29       27.20       27.11       27.01       26.90    
        26.78       26.66       26.52       26.37       26.21       26.04       25.85       25.63       25.40       25.13    
  15    27.90       27.90       27.89       27.87       27.85       27.83       27.80       27.76       27.72       27.68    
        27.63       27.57       27.51       27.44       27.37       27.29       27.20       27.11       27.01       26.90    
        26.78       26.66       26.52       26.37       26.21       26.04       25.85       25.63       25.40       25.13    
  16    27.90       27.90       27.89       27.87       27.85       27.83       27.80       27.76       27.72       27.68    
        27.63       27.57       27.51       27.44       27.37       27.29       27.20       27.11       27.01       26.90    
        26.78       26.66       26.52       26.37       26.21       26.04       25.85       25.63       25.40       25.13    
  17    27.90       27.90       27.89       27.87       27.85       27.83       27.80       27.76       27.72       27.68    
        27.63       27.57       27.51       27.44       27.37       27.29       27.20       27.11       27.01       26.90    
        26.78       26.66       26.52       26.37       26.21       26.04       25.85       25.63       25.40       25.13    
  18    27.90       27.90       27.89       27.87       27.85       27.83       27.80       27.76       27.72       27.68    
        27.63       27.57       27.51       27.44       27.37       27.29       27.20       27.11       27.01       26.90    
        26.78       26.66       26.52       26.37       26.21       26.04       25.85       25.63       25.40       25.13    
  19    27.90       27.90       27.89       27.87       27.85       27.83       27.80       27.76       27.72       27.68    
        27.63       27.57       27.51       27.44       27.37       27.29       27.20       27.11       27.01       26.90    
        26.78       26.66       26.52       26.37       26.21       26.04       25.85       25.63       25.40       25.13    
  20    27.90       27.90       27.89       27.87       27.85       27.83       27.80       27.76       27.72       27.68    
        27.63       27.57       27.51       27.44       27.37       27.29       27.20       27.11       27.01       26.90    
        26.78       26.66       26.52       26.37       26.21       26.04       25.85       25.63       25.40       25.13    
  21    27.90       27.90       27.89       27.87       27.85       27.83       27.80       27.76       27.72       27.68    
        27.63       27.57       27.51       27.44       27.37       27.29       27.20       27.11       27.01       26.90    
        26.78       26.66       26.52       26.37       26.21       26.04       25.85       25.63       25.40       25.13    
  22    27.90       27.90       27.89       27.87       27.85       27.83       27.80       27.76       27.72       27.68    
        27.63       27.57       27.51       27.44       27.37       27.29       27.20       27.11       27.01       26.90    
        26.78       26.66       26.52       26.37       26.21       26.04       25.85       25.63       25.40       25.13    
  23    27.90       27.90       27.89       27.87       27.85       27.83       27.80       27.76       27.72       27.68    
        27.63       27.57       27.51       27.44       27.37       27.29       27.20       27.11       27.01       26.90    
        26.78       26.66       26.52       26.37       26.21       26.04       25.85       25.63       25.40       25.13    
  24    27.90       27.90       27.89       27.87       27.85       27.83       27.80       27.76       27.72       27.68    
        27.63       27.57       27.51       27.44       27.37       27.29       27.20       27.11       27.01       26.90    
        26.78       26.66       26.52       26.37       26.21       26.04       25.85       25.63       25.40       25.13    
  25    27.90       27.90       27.89       27.87       27.85       27.83       27.80       27.76       27.72       27.68    
        27.63       27.57       27.51       27.44       27.37       27.29       27.20       27.11       27.01       26.90    
        26.78       26.66       26.52       26.37       26.21       26.04       25.85       25.63       25.40       25.13    
  26    27.90       27.90       27.89       27.87       27.85       27.83       27.80       27.76       27.72       27.68    
        27.63       27.57       27.51       27.44       27.37       27.29       27.20       27.11       27.01       26.90    
        26.78       26.66       26.52       26.37       26.21       26.04       25.85       25.63       25.40       25.13    
  27    27.90       27.90       27.89       27.87       27.85       27.83       27.80       27.76       27.72       27.68    
        27.63       27.57       27.51       27.44       27.37       27.29       27.20       27.11       27.01       26.90    
        26.78       26.66       26.52       26.37       26.21       26.04       25.85       25.63       25.40       25.13    
  28    27.90       27.90       27.89       27.87       27.85       27.83       27.80       27.76       27.72       27.68    
        27.63       27.57       27.51       27.44       27.37       27.29       27.20       27.11       27.01       26.90    
        26.78       26.66       26.52       26.37       26.21       26.04       25.85       25.63       25.40       25.13    
  29    27.90       27.90       27.89       27.87       27.85       27.83       27.80       27.76       27.72       27.68    
        27.63       27.57       27.51       27.44       27.37       27.29       27.20       27.11       27.01       26.90    
        26.78       26.66       26.52       26.37       26.21       26.04       25.85       25.63       25.40       25.13    
  30    27.90       27.90       27.89       27.87       27.85       27.83       27.80       27.76       27.72       27.68    
        27.63       27.57       27.51       27.44       27.37       27.29       27.20       27.11       27.01       26.90    
        26.78       26.66       26.52       26.37       26.21       26.04       25.85       25.63       25.40       25.13    

 HEAD WILL BE SAVED ON UNIT 1017 AT END OF TIME STEP   10, STRESS PERIOD   29


  VOLUME BUDGET FOR ENTIRE MODEL AT END OF TIME STEP   10, STRESS PERIOD  29
  ---------------------------------------------------------------------------------------------------

     CUMULATIVE VOLUME      L**3       RATES FOR THIS TIME STEP      L**3/T          PACKAGE NAME    
     ------------------                 ------------------------                     ----------------

           IN:                                      IN:
           ---                                      ---
              STO-SS =          46.1831                STO-SS =       8.0613E-02     STORAGE         
              STO-SY =       29690.2382                STO-SY =          50.6469     STORAGE         
                 RCH =      142179.5160                   RCH =         107.2606     RCHA            
                 CHD =        2273.1987                   CHD =           0.0000     CHD             

            TOTAL IN =      174189.1360              TOTAL IN =         157.9880

          OUT:                                     OUT:
          ----                                     ----
              STO-SS =          37.7106                STO-SS =           0.0000     STORAGE         
              STO-SY =       24570.7782                STO-SY =           0.0000     STORAGE         
                 RCH =           0.0000                   RCH =           0.0000     RCHA            
                 CHD =      149580.0938                   CHD =         157.9851     CHD             

           TOTAL OUT =      174188.5826             TOTAL OUT =         157.9851

            IN - OUT =           0.5534              IN - OUT =       2.9607E-03

 PERCENT DISCREPANCY =           0.00     PERCENT DISCREPANCY =           0.00




         TIME SUMMARY AT END OF TIME STEP   10 IN STRESS PERIOD   29
                    SECONDS     MINUTES      HOURS       DAYS        YEARS
                    -----------------------------------------------------------
   TIME STEP LENGTH 2.59200E+05  4320.0      72.000      3.0000     8.21355E-03
 STRESS PERIOD TIME 2.59200E+06  43200.      720.00      30.000     8.21355E-02
         TOTAL TIME 7.26624E+07 1.21104E+06  20184.      841.00      2.3025    

 OUTPUT CONTROL FOR STRESS PERIOD 30 IS REPEATED USING SETTINGS FROM A PREVIOUS STRESS PERIOD.


 STRESS PERIOD 30 IS TRANSIENT


                 RECHARGE =  0.8219178E-03
 UBDSV1 SAVING           STO-SS ON UNIT   1016 AT TIME STEP      1, STRESS PERIOD     30
 UBDSV1 SAVING           STO-SY ON UNIT   1016 AT TIME STEP      1, STRESS PERIOD     30
 UBDSV1 SAVING     FLOW-JA-FACE ON UNIT   1016 AT TIME STEP      1, STRESS PERIOD     30
 UBDSV06 SAVING              RCH IN MODEL TEST_TRANS       PACKAGE TEST_TRANS      CONNECTED TO MODEL TEST_TRANS       PACKAGE RCHA             ON UNIT   1016 AT TIME STEP      1, STRESS PERIOD     30
 UBDSV06 SAVING              CHD IN MODEL TEST_TRANS       PACKAGE TEST_TRANS      CONNECTED TO MODEL TEST_TRANS       PACKAGE CHD              ON UNIT   1016 AT TIME STEP      1, STRESS PERIOD     30
1
  HEAD IN LAYER   1 AT END OF TIME STEP   1 IN STRESS PERIOD   30
  ---------------------------------------------------------------------------

            1           2           3           4           5           6           7           8           9          10
           11          12          13          14          15          16          17          18          19          20
           21          22          23          24          25          26          27          28          29          30
 ........................................................................................................................
   1    27.88       27.88       27.87       27.85       27.84       27.81       27.78       27.75       27.71       27.66    
        27.61       27.56       27.50       27.43       27.36       27.28       27.19       27.10       27.00       26.90    
        26.78       26.67       26.55       26.42       26.31       26.20       26.14       26.14       26.25       26.56    
   2    27.88       27.88       27.87       27.85       27.84       27.81       27.78       27.75       27.71       27.66    
        27.61       27.56       27.50       27.43       27.36       27.28       27.19       27.10       27.00       26.90    
        26.78       26.67       26.55       26.42       26.31       26.20       26.14       26.14       26.25       26.56    
   3    27.88       27.88       27.87       27.85       27.84       27.81       27.78       27.75       27.71       27.66    
        27.61       27.56       27.50       27.43       27.36       27.28       27.19       27.10       27.00       26.90    
        26.78       26.67       26.55       26.42       26.31       26.20       26.14       26.14       26.25       26.56    
   4    27.88       27.88       27.87       27.85       27.84       27.81       27.78       27.75       27.71       27.66    
        27.61       27.56       27.50       27.43       27.36       27.28       27.19       27.10       27.00       26.90    
        26.78       26.67       26.55       26.42       26.31       26.20       26.14       26.14       26.25       26.56    
   5    27.88       27.88       27.87       27.85       27.84       27.81       27.78       27.75       27.71       27.66    
        27.61       27.56       27.50       27.43       27.36       27.28       27.19       27.10       27.00       26.90    
        26.78       26.67       26.55       26.42       26.31       26.20       26.14       26.14       26.25       26.56    
   6    27.88       27.88       27.87       27.85       27.84       27.81       27.78       27.75       27.71       27.66    
        27.61       27.56       27.50       27.43       27.36       27.28       27.19       27.10       27.00       26.90    
        26.78       26.67       26.55       26.42       26.31       26.20       26.14       26.14       26.25       26.56    
   7    27.88       27.88       27.87       27.85       27.84       27.81       27.78       27.75       27.71       27.66    
        27.61       27.56       27.50       27.43       27.36       27.28       27.19       27.10       27.00       26.90    
        26.78       26.67       26.55       26.42       26.31       26.20       26.14       26.14       26.25       26.56    
   8    27.88       27.88       27.87       27.85       27.84       27.81       27.78       27.75       27.71       27.66    
        27.61       27.56       27.50       27.43       27.36       27.28       27.19       27.10       27.00       26.90    
        26.78       26.67       26.55       26.42       26.31       26.20       26.14       26.14       26.25       26.56    
   9    27.88       27.88       27.87       27.85       27.84       27.81       27.78       27.75       27.71       27.66    
        27.61       27.56       27.50       27.43       27.36       27.28       27.19       27.10       27.00       26.90    
        26.78       26.67       26.55       26.42       26.31       26.20       26.14       26.14       26.25       26.56    
  10    27.88       27.88       27.87       27.85       27.84       27.81       27.78       27.75       27.71       27.66    
        27.61       27.56       27.50       27.43       27.36       27.28       27.19       27.10       27.00       26.90    
        26.78       26.67       26.55       26.42       26.31       26.20       26.14       26.14       26.25       26.56    
  11    27.88       27.88       27.87       27.85       27.84       27.81       27.78       27.75       27.71       27.66    
        27.61       27.56       27.50       27.43       27.36       27.28       27.19       27.10       27.00       26.90    
        26.78       26.67       26.55       26.42       26.31       26.20       26.14       26.14       26.25       26.56    
  12    27.88       27.88       27.87       27.85       27.84       27.81       27.78       27.75       27.71       27.66    
        27.61       27.56       27.50       27.43       27.36       27.28       27.19       27.10       27.00       26.90    
        26.78       26.67       26.55       26.42       26.31       26.20       26.14       26.14       26.25       26.56    
  13    27.88       27.88       27.87       27.85       27.84       27.81       27.78       27.75       27.71       27.66    
        27.61       27.56       27.50       27.43       27.36       27.28       27.19       27.10       27.00       26.90    
        26.78       26.67       26.55       26.42       26.31       26.20       26.14       26.14       26.25       26.56    
  14    27.88       27.88       27.87       27.85       27.84       27.81       27.78       27.75       27.71       27.66    
        27.61       27.56       27.50       27.43       27.36       27.28       27.19       27.10       27.00       26.90    
        26.78       26.67       26.55       26.42       26.31       26.20       26.14       26.14       26.25       26.56    
  15    27.88       27.88       27.87       27.85       27.84       27.81       27.78       27.75       27.71       27.66    
        27.61       27.56       27.50       27.43       27.36       27.28       27.19       27.10       27.00       26.90    
        26.78       26.67       26.55       26.42       26.31       26.20       26.14       26.14       26.25       26.56    
  16    27.88       27.88       27.87       27.85       27.84       27.81       27.78       27.75       27.71       27.66    
        27.61       27.56       27.50       27.43       27.36       27.28       27.19       27.10       27.00       26.90    
        26.78       26.67       26.55       26.42       26.31       26.20       26.14       26.14       26.25       26.56    
  17    27.88       27.88       27.87       27.85       27.84       27.81       27.78       27.75       27.71       27.66    
        27.61       27.56       27.50       27.43       27.36       27.28       27.19       27.10       27.00       26.90    
        26.78       26.67       26.55       26.42       26.31       26.20       26.14       26.14       26.25       26.56    
  18    27.88       27.88       27.87       27.85       27.84       27.81       27.78       27.75       27.71       27.66    
        27.61       27.56       27.50       27.43       27.36       27.28       27.19       27.10       27.00       26.90    
        26.78       26.67       26.55       26.42       26.31       26.20       26.14       26.14       26.25       26.56    
  19    27.88       27.88       27.87       27.85       27.84       27.81       27.78       27.75       27.71       27.66    
        27.61       27.56       27.50       27.43       27.36       27.28       27.19       27.10       27.00       26.90    
        26.78       26.67       26.55       26.42       26.31       26.20       26.14       26.14       26.25       26.56    
  20    27.88       27.88       27.87       27.85       27.84       27.81       27.78       27.75       27.71       27.66    
        27.61       27.56       27.50       27.43       27.36       27.28       27.19       27.10       27.00       26.90    
        26.78       26.67       26.55       26.42       26.31       26.20       26.14       26.14       26.25       26.56    
  21    27.88       27.88       27.87       27.85       27.84       27.81       27.78       27.75       27.71       27.66    
        27.61       27.56       27.50       27.43       27.36       27.28       27.19       27.10       27.00       26.90    
        26.78       26.67       26.55       26.42       26.31       26.20       26.14       26.14       26.25       26.56    
  22    27.88       27.88       27.87       27.85       27.84       27.81       27.78       27.75       27.71       27.66    
        27.61       27.56       27.50       27.43       27.36       27.28       27.19       27.10       27.00       26.90    
        26.78       26.67       26.55       26.42       26.31       26.20       26.14       26.14       26.25       26.56    
  23    27.88       27.88       27.87       27.85       27.84       27.81       27.78       27.75       27.71       27.66    
        27.61       27.56       27.50       27.43       27.36       27.28       27.19       27.10       27.00       26.90    
        26.78       26.67       26.55       26.42       26.31       26.20       26.14       26.14       26.25       26.56    
  24    27.88       27.88       27.87       27.85       27.84       27.81       27.78       27.75       27.71       27.66    
        27.61       27.56       27.50       27.43       27.36       27.28       27.19       27.10       27.00       26.90    
        26.78       26.67       26.55       26.42       26.31       26.20       26.14       26.14       26.25       26.56    
  25    27.88       27.88       27.87       27.85       27.84       27.81       27.78       27.75       27.71       27.66    
        27.61       27.56       27.50       27.43       27.36       27.28       27.19       27.10       27.00       26.90    
        26.78       26.67       26.55       26.42       26.31       26.20       26.14       26.14       26.25       26.56    
  26    27.88       27.88       27.87       27.85       27.84       27.81       27.78       27.75       27.71       27.66    
        27.61       27.56       27.50       27.43       27.36       27.28       27.19       27.10       27.00       26.90    
        26.78       26.67       26.55       26.42       26.31       26.20       26.14       26.14       26.25       26.56    
  27    27.88       27.88       27.87       27.85       27.84       27.81       27.78       27.75       27.71       27.66    
        27.61       27.56       27.50       27.43       27.36       27.28       27.19       27.10       27.00       26.90    
        26.78       26.67       26.55       26.42       26.31       26.20       26.14       26.14       26.25       26.56    
  28    27.88       27.88       27.87       27.85       27.84       27.81       27.78       27.75       27.71       27.66    
        27.61       27.56       27.50       27.43       27.36       27.28       27.19       27.10       27.00       26.90    
        26.78       26.67       26.55       26.42       26.31       26.20       26.14       26.14       26.25       26.56    
  29    27.88       27.88       27.87       27.85       27.84       27.81       27.78       27.75       27.71       27.66    
        27.61       27.56       27.50       27.43       27.36       27.28       27.19       27.10       27.00       26.90    
        26.78       26.67       26.55       26.42       26.31       26.20       26.14       26.14       26.25       26.56    
  30    27.88       27.88       27.87       27.85       27.84       27.81       27.78       27.75       27.71       27.66    
        27.61       27.56       27.50       27.43       27.36       27.28       27.19       27.10       27.00       26.90    
        26.78       26.67       26.55       26.42       26.31       26.20       26.14       26.14       26.25       26.56    

 HEAD WILL BE SAVED ON UNIT 1017 AT END OF TIME STEP    1, STRESS PERIOD   30



         TIME SUMMARY AT END OF TIME STEP    1 IN STRESS PERIOD   30
                    SECONDS     MINUTES      HOURS       DAYS        YEARS
                    -----------------------------------------------------------
   TIME STEP LENGTH 2.59200E+05  4320.0      72.000      3.0000     8.21355E-03
 STRESS PERIOD TIME 2.59200E+05  4320.0      72.000      3.0000     8.21355E-03
         TOTAL TIME 7.29216E+07 1.21536E+06  20256.      844.00      2.3107    
 UBDSV1 SAVING           STO-SS ON UNIT   1016 AT TIME STEP      2, STRESS PERIOD     30
 UBDSV1 SAVING           STO-SY ON UNIT   1016 AT TIME STEP      2, STRESS PERIOD     30
 UBDSV1 SAVING     FLOW-JA-FACE ON UNIT   1016 AT TIME STEP      2, STRESS PERIOD     30
 UBDSV06 SAVING              RCH IN MODEL TEST_TRANS       PACKAGE TEST_TRANS      CONNECTED TO MODEL TEST_TRANS       PACKAGE RCHA             ON UNIT   1016 AT TIME STEP      2, STRESS PERIOD     30
 UBDSV06 SAVING              CHD IN MODEL TEST_TRANS       PACKAGE TEST_TRANS      CONNECTED TO MODEL TEST_TRANS       PACKAGE CHD              ON UNIT   1016 AT TIME STEP      2, STRESS PERIOD     30

 HEAD WILL BE SAVED ON UNIT 1017 AT END OF TIME STEP    2, STRESS PERIOD   30
 UBDSV1 SAVING           STO-SS ON UNIT   1016 AT TIME STEP      3, STRESS PERIOD     30
 UBDSV1 SAVING           STO-SY ON UNIT   1016 AT TIME STEP      3, STRESS PERIOD     30
 UBDSV1 SAVING     FLOW-JA-FACE ON UNIT   1016 AT TIME STEP      3, STRESS PERIOD     30
 UBDSV06 SAVING              RCH IN MODEL TEST_TRANS       PACKAGE TEST_TRANS      CONNECTED TO MODEL TEST_TRANS       PACKAGE RCHA             ON UNIT   1016 AT TIME STEP      3, STRESS PERIOD     30
 UBDSV06 SAVING              CHD IN MODEL TEST_TRANS       PACKAGE TEST_TRANS      CONNECTED TO MODEL TEST_TRANS       PACKAGE CHD              ON UNIT   1016 AT TIME STEP      3, STRESS PERIOD     30

 HEAD WILL BE SAVED ON UNIT 1017 AT END OF TIME STEP    3, STRESS PERIOD   30
 UBDSV1 SAVING           STO-SS ON UNIT   1016 AT TIME STEP      4, STRESS PERIOD     30
 UBDSV1 SAVING           STO-SY ON UNIT   1016 AT TIME STEP      4, STRESS PERIOD     30
 UBDSV1 SAVING     FLOW-JA-FACE ON UNIT   1016 AT TIME STEP      4, STRESS PERIOD     30
 UBDSV06 SAVING              RCH IN MODEL TEST_TRANS       PACKAGE TEST_TRANS      CONNECTED TO MODEL TEST_TRANS       PACKAGE RCHA             ON UNIT   1016 AT TIME STEP      4, STRESS PERIOD     30
 UBDSV06 SAVING              CHD IN MODEL TEST_TRANS       PACKAGE TEST_TRANS      CONNECTED TO MODEL TEST_TRANS       PACKAGE CHD              ON UNIT   1016 AT TIME STEP      4, STRESS PERIOD     30

 HEAD WILL BE SAVED ON UNIT 1017 AT END OF TIME STEP    4, STRESS PERIOD   30
 UBDSV1 SAVING           STO-SS ON UNIT   1016 AT TIME STEP      5, STRESS PERIOD     30
 UBDSV1 SAVING           STO-SY ON UNIT   1016 AT TIME STEP      5, STRESS PERIOD     30
 UBDSV1 SAVING     FLOW-JA-FACE ON UNIT   1016 AT TIME STEP      5, STRESS PERIOD     30
 UBDSV06 SAVING              RCH IN MODEL TEST_TRANS       PACKAGE TEST_TRANS      CONNECTED TO MODEL TEST_TRANS       PACKAGE RCHA             ON UNIT   1016 AT TIME STEP      5, STRESS PERIOD     30
 UBDSV06 SAVING              CHD IN MODEL TEST_TRANS       PACKAGE TEST_TRANS      CONNECTED TO MODEL TEST_TRANS       PACKAGE CHD              ON UNIT   1016 AT TIME STEP      5, STRESS PERIOD     30

 HEAD WILL BE SAVED ON UNIT 1017 AT END OF TIME STEP    5, STRESS PERIOD   30
 UBDSV1 SAVING           STO-SS ON UNIT   1016 AT TIME STEP      6, STRESS PERIOD     30
 UBDSV1 SAVING           STO-SY ON UNIT   1016 AT TIME STEP      6, STRESS PERIOD     30
 UBDSV1 SAVING     FLOW-JA-FACE ON UNIT   1016 AT TIME STEP      6, STRESS PERIOD     30
 UBDSV06 SAVING              RCH IN MODEL TEST_TRANS       PACKAGE TEST_TRANS      CONNECTED TO MODEL TEST_TRANS       PACKAGE RCHA             ON UNIT   1016 AT TIME STEP      6, STRESS PERIOD     30
 UBDSV06 SAVING              CHD IN MODEL TEST_TRANS       PACKAGE TEST_TRANS      CONNECTED TO MODEL TEST_TRANS       PACKAGE CHD              ON UNIT   1016 AT TIME STEP      6, STRESS PERIOD     30

 HEAD WILL BE SAVED ON UNIT 1017 AT END OF TIME STEP    6, STRESS PERIOD   30
 UBDSV1 SAVING           STO-SS ON UNIT   1016 AT TIME STEP      7, STRESS PERIOD     30
 UBDSV1 SAVING           STO-SY ON UNIT   1016 AT TIME STEP      7, STRESS PERIOD     30
 UBDSV1 SAVING     FLOW-JA-FACE ON UNIT   1016 AT TIME STEP      7, STRESS PERIOD     30
 UBDSV06 SAVING              RCH IN MODEL TEST_TRANS       PACKAGE TEST_TRANS      CONNECTED TO MODEL TEST_TRANS       PACKAGE RCHA             ON UNIT   1016 AT TIME STEP      7, STRESS PERIOD     30
 UBDSV06 SAVING              CHD IN MODEL TEST_TRANS       PACKAGE TEST_TRANS      CONNECTED TO MODEL TEST_TRANS       PACKAGE CHD              ON UNIT   1016 AT TIME STEP      7, STRESS PERIOD     30

 HEAD WILL BE SAVED ON UNIT 1017 AT END OF TIME STEP    7, STRESS PERIOD   30
 UBDSV1 SAVING           STO-SS ON UNIT   1016 AT TIME STEP      8, STRESS PERIOD     30
 UBDSV1 SAVING           STO-SY ON UNIT   1016 AT TIME STEP      8, STRESS PERIOD     30
 UBDSV1 SAVING     FLOW-JA-FACE ON UNIT   1016 AT TIME STEP      8, STRESS PERIOD     30
 UBDSV06 SAVING              RCH IN MODEL TEST_TRANS       PACKAGE TEST_TRANS      CONNECTED TO MODEL TEST_TRANS       PACKAGE RCHA             ON UNIT   1016 AT TIME STEP      8, STRESS PERIOD     30
 UBDSV06 SAVING              CHD IN MODEL TEST_TRANS       PACKAGE TEST_TRANS      CONNECTED TO MODEL TEST_TRANS       PACKAGE CHD              ON UNIT   1016 AT TIME STEP      8, STRESS PERIOD     30

 HEAD WILL BE SAVED ON UNIT 1017 AT END OF TIME STEP    8, STRESS PERIOD   30
 UBDSV1 SAVING           STO-SS ON UNIT   1016 AT TIME STEP      9, STRESS PERIOD     30
 UBDSV1 SAVING           STO-SY ON UNIT   1016 AT TIME STEP      9, STRESS PERIOD     30
 UBDSV1 SAVING     FLOW-JA-FACE ON UNIT   1016 AT TIME STEP      9, STRESS PERIOD     30
 UBDSV06 SAVING              RCH IN MODEL TEST_TRANS       PACKAGE TEST_TRANS      CONNECTED TO MODEL TEST_TRANS       PACKAGE RCHA             ON UNIT   1016 AT TIME STEP      9, STRESS PERIOD     30
 UBDSV06 SAVING              CHD IN MODEL TEST_TRANS       PACKAGE TEST_TRANS      CONNECTED TO MODEL TEST_TRANS       PACKAGE CHD              ON UNIT   1016 AT TIME STEP      9, STRESS PERIOD     30

 HEAD WILL BE SAVED ON UNIT 1017 AT END OF TIME STEP    9, STRESS PERIOD   30
 UBDSV1 SAVING           STO-SS ON UNIT   1016 AT TIME STEP     10, STRESS PERIOD     30
 UBDSV1 SAVING           STO-SY ON UNIT   1016 AT TIME STEP     10, STRESS PERIOD     30
 UBDSV1 SAVING     FLOW-JA-FACE ON UNIT   1016 AT TIME STEP     10, STRESS PERIOD     30
 UBDSV06 SAVING              RCH IN MODEL TEST_TRANS       PACKAGE TEST_TRANS      CONNECTED TO MODEL TEST_TRANS       PACKAGE RCHA             ON UNIT   1016 AT TIME STEP     10, STRESS PERIOD     30
 UBDSV06 SAVING              CHD IN MODEL TEST_TRANS       PACKAGE TEST_TRANS      CONNECTED TO MODEL TEST_TRANS       PACKAGE CHD              ON UNIT   1016 AT TIME STEP     10, STRESS PERIOD     30
1
  HEAD IN LAYER   1 AT END OF TIME STEP  10 IN STRESS PERIOD   30
  ---------------------------------------------------------------------------

            1           2           3           4           5           6           7           8           9          10
           11          12          13          14          15          16          17          18          19          20
           21          22          23          24          25          26          27          28          29          30
 ........................................................................................................................
   1    27.74       27.74       27.73       27.72       27.70       27.68       27.66       27.63       27.60       27.56    
        27.53       27.49       27.44       27.40       27.35       27.30       27.24       27.19       27.14       27.08    
        27.03       26.98       26.92       26.87       26.82       26.77       26.72       26.67       26.61       26.56    
   2    27.74       27.74       27.73       27.72       27.70       27.68       27.66       27.63       27.60       27.56    
        27.53       27.49       27.44       27.40       27.35       27.30       27.24       27.19       27.14       27.08    
        27.03       26.98       26.92       26.87       26.82       26.77       26.72       26.67       26.61       26.56    
   3    27.74       27.74       27.73       27.72       27.70       27.68       27.66       27.63       27.60       27.56    
        27.53       27.49       27.44       27.40       27.35       27.30       27.24       27.19       27.14       27.08    
        27.03       26.98       26.92       26.87       26.82       26.77       26.72       26.67       26.61       26.56    
   4    27.74       27.74       27.73       27.72       27.70       27.68       27.66       27.63       27.60       27.56    
        27.53       27.49       27.44       27.40       27.35       27.30       27.24       27.19       27.14       27.08    
        27.03       26.98       26.92       26.87       26.82       26.77       26.72       26.67       26.61       26.56    
   5    27.74       27.74       27.73       27.72       27.70       27.68       27.66       27.63       27.60       27.56    
        27.53       27.49       27.44       27.40       27.35       27.30       27.24       27.19       27.14       27.08    
        27.03       26.98       26.92       26.87       26.82       26.77       26.72       26.67       26.61       26.56    
   6    27.74       27.74       27.73       27.72       27.70       27.68       27.66       27.63       27.60       27.56    
        27.53       27.49       27.44       27.40       27.35       27.30       27.24       27.19       27.14       27.08    
        27.03       26.98       26.92       26.87       26.82       26.77       26.72       26.67       26.61       26.56    
   7    27.74       27.74       27.73       27.72       27.70       27.68       27.66       27.63       27.60       27.56    
        27.53       27.49       27.44       27.40       27.35       27.30       27.24       27.19       27.14       27.08    
        27.03       26.98       26.92       26.87       26.82       26.77       26.72       26.67       26.61       26.56    
   8    27.74       27.74       27.73       27.72       27.70       27.68       27.66       27.63       27.60       27.56    
        27.53       27.49       27.44       27.40       27.35       27.30       27.24       27.19       27.14       27.08    
        27.03       26.98       26.92       26.87       26.82       26.77       26.72       26.67       26.61       26.56    
   9    27.74       27.74       27.73       27.72       27.70       27.68       27.66       27.63       27.60       27.56    
        27.53       27.49       27.44       27.40       27.35       27.30       27.24       27.19       27.14       27.08    
        27.03       26.98       26.92       26.87       26.82       26.77       26.72       26.67       26.61       26.56    
  10    27.74       27.74       27.73       27.72       27.70       27.68       27.66       27.63       27.60       27.56    
        27.53       27.49       27.44       27.40       27.35       27.30       27.24       27.19       27.14       27.08    
        27.03       26.98       26.92       26.87       26.82       26.77       26.72       26.67       26.61       26.56    
  11    27.74       27.74       27.73       27.72       27.70       27.68       27.66       27.63       27.60       27.56    
        27.53       27.49       27.44       27.40       27.35       27.30       27.24       27.19       27.14       27.08    
        27.03       26.98       26.92       26.87       26.82       26.77       26.72       26.67       26.61       26.56    
  12    27.74       27.74       27.73       27.72       27.70       27.68       27.66       27.63       27.60       27.56    
        27.53       27.49       27.44       27.40       27.35       27.30       27.24       27.19       27.14       27.08    
        27.03       26.98       26.92       26.87       26.82       26.77       26.72       26.67       26.61       26.56    
  13    27.74       27.74       27.73       27.72       27.70       27.68       27.66       27.63       27.60       27.56    
        27.53       27.49       27.44       27.40       27.35       27.30       27.24       27.19       27.14       27.08    
        27.03       26.98       26.92       26.87       26.82       26.77       26.72       26.67       26.61       26.56    
  14    27.74       27.74       27.73       27.72       27.70       27.68       27.66       27.63       27.60       27.56    
        27.53       27.49       27.44       27.40       27.35       27.30       27.24       27.19       27.14       27.08    
        27.03       26.98       26.92       26.87       26.82       26.77       26.72       26.67       26.61       26.56    
  15    27.74       27.74       27.73       27.72       27.70       27.68       27.66       27.63       27.60       27.56    
        27.53       27.49       27.44       27.40       27.35       27.30       27.24       27.19       27.14       27.08    
        27.03       26.98       26.92       26.87       26.82       26.77       26.72       26.67       26.61       26.56    
  16    27.74       27.74       27.73       27.72       27.70       27.68       27.66       27.63       27.60       27.56    
        27.53       27.49       27.44       27.40       27.35       27.30       27.24       27.19       27.14       27.08    
        27.03       26.98       26.92       26.87       26.82       26.77       26.72       26.67       26.61       26.56    
  17    27.74       27.74       27.73       27.72       27.70       27.68       27.66       27.63       27.60       27.56    
        27.53       27.49       27.44       27.40       27.35       27.30       27.24       27.19       27.14       27.08    
        27.03       26.98       26.92       26.87       26.82       26.77       26.72       26.67       26.61       26.56    
  18    27.74       27.74       27.73       27.72       27.70       27.68       27.66       27.63       27.60       27.56    
        27.53       27.49       27.44       27.40       27.35       27.30       27.24       27.19       27.14       27.08    
        27.03       26.98       26.92       26.87       26.82       26.77       26.72       26.67       26.61       26.56    
  19    27.74       27.74       27.73       27.72       27.70       27.68       27.66       27.63       27.60       27.56    
        27.53       27.49       27.44       27.40       27.35       27.30       27.24       27.19       27.14       27.08    
        27.03       26.98       26.92       26.87       26.82       26.77       26.72       26.67       26.61       26.56    
  20    27.74       27.74       27.73       27.72       27.70       27.68       27.66       27.63       27.60       27.56    
        27.53       27.49       27.44       27.40       27.35       27.30       27.24       27.19       27.14       27.08    
        27.03       26.98       26.92       26.87       26.82       26.77       26.72       26.67       26.61       26.56    
  21    27.74       27.74       27.73       27.72       27.70       27.68       27.66       27.63       27.60       27.56    
        27.53       27.49       27.44       27.40       27.35       27.30       27.24       27.19       27.14       27.08    
        27.03       26.98       26.92       26.87       26.82       26.77       26.72       26.67       26.61       26.56    
  22    27.74       27.74       27.73       27.72       27.70       27.68       27.66       27.63       27.60       27.56    
        27.53       27.49       27.44       27.40       27.35       27.30       27.24       27.19       27.14       27.08    
        27.03       26.98       26.92       26.87       26.82       26.77       26.72       26.67       26.61       26.56    
  23    27.74       27.74       27.73       27.72       27.70       27.68       27.66       27.63       27.60       27.56    
        27.53       27.49       27.44       27.40       27.35       27.30       27.24       27.19       27.14       27.08    
        27.03       26.98       26.92       26.87       26.82       26.77       26.72       26.67       26.61       26.56    
  24    27.74       27.74       27.73       27.72       27.70       27.68       27.66       27.63       27.60       27.56    
        27.53       27.49       27.44       27.40       27.35       27.30       27.24       27.19       27.14       27.08    
        27.03       26.98       26.92       26.87       26.82       26.77       26.72       26.67       26.61       26.56    
  25    27.74       27.74       27.73       27.72       27.70       27.68       27.66       27.63       27.60       27.56    
        27.53       27.49       27.44       27.40       27.35       27.30       27.24       27.19       27.14       27.08    
        27.03       26.98       26.92       26.87       26.82       26.77       26.72       26.67       26.61       26.56    
  26    27.74       27.74       27.73       27.72       27.70       27.68       27.66       27.63       27.60       27.56    
        27.53       27.49       27.44       27.40       27.35       27.30       27.24       27.19       27.14       27.08    
        27.03       26.98       26.92       26.87       26.82       26.77       26.72       26.67       26.61       26.56    
  27    27.74       27.74       27.73       27.72       27.70       27.68       27.66       27.63       27.60       27.56    
        27.53       27.49       27.44       27.40       27.35       27.30       27.24       27.19       27.14       27.08    
        27.03       26.98       26.92       26.87       26.82       26.77       26.72       26.67       26.61       26.56    
  28    27.74       27.74       27.73       27.72       27.70       27.68       27.66       27.63       27.60       27.56    
        27.53       27.49       27.44       27.40       27.35       27.30       27.24       27.19       27.14       27.08    
        27.03       26.98       26.92       26.87       26.82       26.77       26.72       26.67       26.61       26.56    
  29    27.74       27.74       27.73       27.72       27.70       27.68       27.66       27.63       27.60       27.56    
        27.53       27.49       27.44       27.40       27.35       27.30       27.24       27.19       27.14       27.08    
        27.03       26.98       26.92       26.87       26.82       26.77       26.72       26.67       26.61       26.56    
  30    27.74       27.74       27.73       27.72       27.70       27.68       27.66       27.63       27.60       27.56    
        27.53       27.49       27.44       27.40       27.35       27.30       27.24       27.19       27.14       27.08    
        27.03       26.98       26.92       26.87       26.82       26.77       26.72       26.67       26.61       26.56    

 HEAD WILL BE SAVED ON UNIT 1017 AT END OF TIME STEP   10, STRESS PERIOD   30


  VOLUME BUDGET FOR ENTIRE MODEL AT END OF TIME STEP   10, STRESS PERIOD  30
  ---------------------------------------------------------------------------------------------------

     CUMULATIVE VOLUME      L**3       RATES FOR THIS TIME STEP      L**3/T          PACKAGE NAME    
     ------------------                 ------------------------                     ----------------

           IN:                                      IN:
           ---                                      ---
              STO-SS =          48.0034                STO-SS =       3.4217E-02     STORAGE         
              STO-SY =       30815.1570                STO-SY =          21.1401     STORAGE         
                 RCH =      144324.7215                   RCH =          71.5068     RCHA            
                 CHD =        3520.9028                   CHD =           0.0000     CHD             

            TOTAL IN =      178708.7846              TOTAL IN =          92.6811

          OUT:                                     OUT:
          ----                                     ----
              STO-SS =          43.5029                STO-SS =       6.3689E-02     STORAGE         
              STO-SY =       28453.8741                STO-SY =          41.1919     STORAGE         
                 RCH =           0.0000                   RCH =           0.0000     RCHA            
                 CHD =      150210.9003                   CHD =          51.4291     CHD             

           TOTAL OUT =      178708.2773             TOTAL OUT =          92.6847

            IN - OUT =           0.5074              IN - OUT =      -3.5506E-03

 PERCENT DISCREPANCY =           0.00     PERCENT DISCREPANCY =          -0.00




         TIME SUMMARY AT END OF TIME STEP   10 IN STRESS PERIOD   30
                    SECONDS     MINUTES      HOURS       DAYS        YEARS
                    -----------------------------------------------------------
   TIME STEP LENGTH 2.59200E+05  4320.0      72.000      3.0000     8.21355E-03
 STRESS PERIOD TIME 2.59200E+06  43200.      720.00      30.000     8.21355E-02
         TOTAL TIME 7.52544E+07 1.25424E+06  20904.      871.00      2.3847    

 OUTPUT CONTROL FOR STRESS PERIOD 31 IS REPEATED USING SETTINGS FROM A PREVIOUS STRESS PERIOD.


 STRESS PERIOD 31 IS TRANSIENT


                 RECHARGE =  0.5479452E-03
 UBDSV1 SAVING           STO-SS ON UNIT   1016 AT TIME STEP      1, STRESS PERIOD     31
 UBDSV1 SAVING           STO-SY ON UNIT   1016 AT TIME STEP      1, STRESS PERIOD     31
 UBDSV1 SAVING     FLOW-JA-FACE ON UNIT   1016 AT TIME STEP      1, STRESS PERIOD     31
 UBDSV06 SAVING              RCH IN MODEL TEST_TRANS       PACKAGE TEST_TRANS      CONNECTED TO MODEL TEST_TRANS       PACKAGE RCHA             ON UNIT   1016 AT TIME STEP      1, STRESS PERIOD     31
 UBDSV06 SAVING              CHD IN MODEL TEST_TRANS       PACKAGE TEST_TRANS      CONNECTED TO MODEL TEST_TRANS       PACKAGE CHD              ON UNIT   1016 AT TIME STEP      1, STRESS PERIOD     31
1
  HEAD IN LAYER   1 AT END OF TIME STEP   1 IN STRESS PERIOD   31
  ---------------------------------------------------------------------------

            1           2           3           4           5           6           7           8           9          10
           11          12          13          14          15          16          17          18          19          20
           21          22          23          24          25          26          27          28          29          30
 ........................................................................................................................
   1    27.73       27.72       27.71       27.70       27.69       27.67       27.65       27.62       27.59       27.56    
        27.52       27.48       27.44       27.39       27.35       27.30       27.25       27.19       27.14       27.08    
        27.03       26.97       26.90       26.83       26.74       26.64       26.50       26.31       26.01       25.49    
   2    27.73       27.72       27.71       27.70       27.69       27.67       27.65       27.62       27.59       27.56    
        27.52       27.48       27.44       27.39       27.35       27.30       27.25       27.19       27.14       27.08    
        27.03       26.97       26.90       26.83       26.74       26.64       26.50       26.31       26.01       25.49    
   3    27.73       27.72       27.71       27.70       27.69       27.67       27.65       27.62       27.59       27.56    
        27.52       27.48       27.44       27.39       27.35       27.30       27.25       27.19       27.14       27.08    
        27.03       26.97       26.90       26.83       26.74       26.64       26.50       26.31       26.01       25.49    
   4    27.73       27.72       27.71       27.70       27.69       27.67       27.65       27.62       27.59       27.56    
        27.52       27.48       27.44       27.39       27.35       27.30       27.25       27.19       27.14       27.08    
        27.03       26.97       26.90       26.83       26.74       26.64       26.50       26.31       26.01       25.49    
   5    27.73       27.72       27.71       27.70       27.69       27.67       27.65       27.62       27.59       27.56    
        27.52       27.48       27.44       27.39       27.35       27.30       27.25       27.19       27.14       27.08    
        27.03       26.97       26.90       26.83       26.74       26.64       26.50       26.31       26.01       25.49    
   6    27.73       27.72       27.71       27.70       27.69       27.67       27.65       27.62       27.59       27.56    
        27.52       27.48       27.44       27.39       27.35       27.30       27.25       27.19       27.14       27.08    
        27.03       26.97       26.90       26.83       26.74       26.64       26.50       26.31       26.01       25.49    
   7    27.73       27.72       27.71       27.70       27.69       27.67       27.65       27.62       27.59       27.56    
        27.52       27.48       27.44       27.39       27.35       27.30       27.25       27.19       27.14       27.08    
        27.03       26.97       26.90       26.83       26.74       26.64       26.50       26.31       26.01       25.49    
   8    27.73       27.72       27.72       27.70       27.69       27.67       27.65       27.62       27.59       27.56    
        27.52       27.48       27.44       27.39       27.35       27.30       27.25       27.19       27.14       27.08    
        27.03       26.97       26.90       26.83       26.74       26.64       26.50       26.31       26.01       25.49    
   9    27.73       27.72       27.72       27.70       27.69       27.67       27.65       27.62       27.59       27.56    
        27.52       27.48       27.44       27.39       27.35       27.30       27.25       27.19       27.14       27.08    
        27.03       26.97       26.90       26.83       26.74       26.64       26.50       26.31       26.01       25.49    
  10    27.73       27.72       27.72       27.70       27.69       27.67       27.65       27.62       27.59       27.56    
        27.52       27.48       27.44       27.39       27.35       27.30       27.25       27.19       27.14       27.08    
        27.03       26.97       26.90       26.83       26.74       26.64       26.50       26.31       26.01       25.49    
  11    27.73       27.72       27.72       27.70       27.69       27.67       27.65       27.62       27.59       27.56    
        27.52       27.48       27.44       27.39       27.35       27.30       27.25       27.19       27.14       27.08    
        27.03       26.97       26.90       26.83       26.74       26.64       26.50       26.31       26.01       25.49    
  12    27.73       27.72       27.72       27.70       27.69       27.67       27.65       27.62       27.59       27.56    
        27.52       27.48       27.44       27.39       27.35       27.30       27.25       27.19       27.14       27.08    
        27.03       26.97       26.90       26.83       26.74       26.64       26.50       26.31       26.01       25.49    
  13    27.73       27.72       27.72       27.70       27.69       27.67       27.65       27.62       27.59       27.56    
        27.52       27.48       27.44       27.39       27.35       27.30       27.25       27.19       27.14       27.08    
        27.03       26.97       26.90       26.83       26.74       26.64       26.50       26.31       26.01       25.49    
  14    27.73       27.72       27.72       27.70       27.69       27.67       27.65       27.62       27.59       27.56    
        27.52       27.48       27.44       27.39       27.35       27.30       27.25       27.19       27.14       27.08    
        27.03       26.97       26.90       26.83       26.74       26.64       26.50       26.31       26.01       25.49    
  15    27.73       27.72       27.72       27.70       27.69       27.67       27.65       27.62       27.59       27.56    
        27.52       27.48       27.44       27.39       27.35       27.30       27.25       27.19       27.14       27.08    
        27.03       26.97       26.90       26.83       26.74       26.64       26.50       26.31       26.01       25.49    
  16    27.73       27.72       27.72       27.70       27.69       27.67       27.65       27.62       27.59       27.56    
        27.52       27.48       27.44       27.39       27.35       27.30       27.25       27.19       27.14       27.08    
        27.03       26.97       26.90       26.83       26.74       26.64       26.50       26.31       26.01       25.49    
  17    27.73       27.72       27.72       27.70       27.69       27.67       27.65       27.62       27.59       27.56    
        27.52       27.48       27.44       27.39       27.35       27.30       27.25       27.19       27.14       27.08    
        27.03       26.97       26.90       26.83       26.74       26.64       26.50       26.31       26.01       25.49    
  18    27.73       27.72       27.72       27.70       27.69       27.67       27.65       27.62       27.59       27.56    
        27.52       27.48       27.44       27.39       27.35       27.30       27.25       27.19       27.14       27.08    
        27.03       26.97       26.90       26.83       26.74       26.64       26.50       26.31       26.01       25.49    
  19    27.73       27.72       27.72       27.70       27.69       27.67       27.65       27.62       27.59       27.56    
        27.52       27.48       27.44       27.39       27.35       27.30       27.25       27.19       27.14       27.08    
        27.03       26.97       26.90       26.83       26.74       26.64       26.50       26.31       26.01       25.49    
  20    27.73       27.72       27.72       27.70       27.69       27.67       27.65       27.62       27.59       27.56    
        27.52       27.48       27.44       27.39       27.35       27.30       27.25       27.19       27.14       27.08    
        27.03       26.97       26.90       26.83       26.74       26.64       26.50       26.31       26.01       25.49    
  21    27.73       27.72       27.72       27.70       27.69       27.67       27.65       27.62       27.59       27.56    
        27.52       27.48       27.44       27.39       27.35       27.30       27.25       27.19       27.14       27.08    
        27.03       26.97       26.90       26.83       26.74       26.64       26.50       26.31       26.01       25.49    
  22    27.73       27.72       27.72       27.70       27.69       27.67       27.65       27.62       27.59       27.56    
        27.52       27.48       27.44       27.39       27.35       27.30       27.25       27.19       27.14       27.08    
        27.03       26.97       26.90       26.83       26.74       26.64       26.50       26.31       26.01       25.49    
  23    27.73       27.72       27.72       27.70       27.69       27.67       27.65       27.62       27.59       27.56    
        27.52       27.48       27.44       27.39       27.35       27.30       27.25       27.19       27.14       27.08    
        27.03       26.97       26.90       26.83       26.74       26.64       26.50       26.31       26.01       25.49    
  24    27.73       27.72       27.72       27.70       27.69       27.67       27.65       27.62       27.59       27.56    
        27.52       27.48       27.44       27.39       27.35       27.30       27.25       27.19       27.14       27.08    
        27.03       26.97       26.90       26.83       26.74       26.64       26.50       26.31       26.01       25.49    
  25    27.73       27.72       27.72       27.70       27.69       27.67       27.65       27.62       27.59       27.56    
        27.52       27.48       27.44       27.39       27.35       27.30       27.25       27.19       27.14       27.08    
        27.03       26.97       26.90       26.83       26.74       26.64       26.50       26.31       26.01       25.49    
  26    27.73       27.72       27.72       27.70       27.69       27.67       27.65       27.62       27.59       27.56    
        27.52       27.48       27.44       27.39       27.35       27.30       27.25       27.19       27.14       27.08    
        27.03       26.97       26.90       26.83       26.74       26.64       26.50       26.31       26.01       25.49    
  27    27.73       27.72       27.72       27.70       27.69       27.67       27.65       27.62       27.59       27.56    
        27.52       27.48       27.44       27.39       27.35       27.30       27.25       27.19       27.14       27.08    
        27.03       26.97       26.90       26.83       26.74       26.64       26.50       26.31       26.01       25.49    
  28    27.73       27.72       27.72       27.70       27.69       27.67       27.65       27.62       27.59       27.56    
        27.52       27.48       27.44       27.39       27.35       27.30       27.25       27.19       27.14       27.08    
        27.03       26.97       26.90       26.83       26.74       26.64       26.50       26.31       26.01       25.49    
  29    27.73       27.72       27.72       27.70       27.69       27.67       27.65       27.62       27.59       27.56    
        27.52       27.48       27.44       27.39       27.35       27.30       27.25       27.19       27.14       27.08    
        27.03       26.97       26.90       26.83       26.74       26.64       26.50       26.31       26.01       25.49    
  30    27.73       27.72       27.72       27.70       27.69       27.67       27.65       27.62       27.59       27.56    
        27.52       27.48       27.44       27.39       27.35       27.30       27.25       27.19       27.14       27.08    
        27.03       26.97       26.90       26.83       26.74       26.64       26.50       26.31       26.01       25.49    

 HEAD WILL BE SAVED ON UNIT 1017 AT END OF TIME STEP    1, STRESS PERIOD   31



         TIME SUMMARY AT END OF TIME STEP    1 IN STRESS PERIOD   31
                    SECONDS     MINUTES      HOURS       DAYS        YEARS
                    -----------------------------------------------------------
   TIME STEP LENGTH 2.59200E+05  4320.0      72.000      3.0000     8.21355E-03
 STRESS PERIOD TIME 2.59200E+05  4320.0      72.000      3.0000     8.21355E-03
         TOTAL TIME 7.55136E+07 1.25856E+06  20976.      874.00      2.3929    
 UBDSV1 SAVING           STO-SS ON UNIT   1016 AT TIME STEP      2, STRESS PERIOD     31
 UBDSV1 SAVING           STO-SY ON UNIT   1016 AT TIME STEP      2, STRESS PERIOD     31
 UBDSV1 SAVING     FLOW-JA-FACE ON UNIT   1016 AT TIME STEP      2, STRESS PERIOD     31
 UBDSV06 SAVING              RCH IN MODEL TEST_TRANS       PACKAGE TEST_TRANS      CONNECTED TO MODEL TEST_TRANS       PACKAGE RCHA             ON UNIT   1016 AT TIME STEP      2, STRESS PERIOD     31
 UBDSV06 SAVING              CHD IN MODEL TEST_TRANS       PACKAGE TEST_TRANS      CONNECTED TO MODEL TEST_TRANS       PACKAGE CHD              ON UNIT   1016 AT TIME STEP      2, STRESS PERIOD     31

 HEAD WILL BE SAVED ON UNIT 1017 AT END OF TIME STEP    2, STRESS PERIOD   31
 UBDSV1 SAVING           STO-SS ON UNIT   1016 AT TIME STEP      3, STRESS PERIOD     31
 UBDSV1 SAVING           STO-SY ON UNIT   1016 AT TIME STEP      3, STRESS PERIOD     31
 UBDSV1 SAVING     FLOW-JA-FACE ON UNIT   1016 AT TIME STEP      3, STRESS PERIOD     31
 UBDSV06 SAVING              RCH IN MODEL TEST_TRANS       PACKAGE TEST_TRANS      CONNECTED TO MODEL TEST_TRANS       PACKAGE RCHA             ON UNIT   1016 AT TIME STEP      3, STRESS PERIOD     31
 UBDSV06 SAVING              CHD IN MODEL TEST_TRANS       PACKAGE TEST_TRANS      CONNECTED TO MODEL TEST_TRANS       PACKAGE CHD              ON UNIT   1016 AT TIME STEP      3, STRESS PERIOD     31

 HEAD WILL BE SAVED ON UNIT 1017 AT END OF TIME STEP    3, STRESS PERIOD   31
 UBDSV1 SAVING           STO-SS ON UNIT   1016 AT TIME STEP      4, STRESS PERIOD     31
 UBDSV1 SAVING           STO-SY ON UNIT   1016 AT TIME STEP      4, STRESS PERIOD     31
 UBDSV1 SAVING     FLOW-JA-FACE ON UNIT   1016 AT TIME STEP      4, STRESS PERIOD     31
 UBDSV06 SAVING              RCH IN MODEL TEST_TRANS       PACKAGE TEST_TRANS      CONNECTED TO MODEL TEST_TRANS       PACKAGE RCHA             ON UNIT   1016 AT TIME STEP      4, STRESS PERIOD     31
 UBDSV06 SAVING              CHD IN MODEL TEST_TRANS       PACKAGE TEST_TRANS      CONNECTED TO MODEL TEST_TRANS       PACKAGE CHD              ON UNIT   1016 AT TIME STEP      4, STRESS PERIOD     31

 HEAD WILL BE SAVED ON UNIT 1017 AT END OF TIME STEP    4, STRESS PERIOD   31
 UBDSV1 SAVING           STO-SS ON UNIT   1016 AT TIME STEP      5, STRESS PERIOD     31
 UBDSV1 SAVING           STO-SY ON UNIT   1016 AT TIME STEP      5, STRESS PERIOD     31
 UBDSV1 SAVING     FLOW-JA-FACE ON UNIT   1016 AT TIME STEP      5, STRESS PERIOD     31
 UBDSV06 SAVING              RCH IN MODEL TEST_TRANS       PACKAGE TEST_TRANS      CONNECTED TO MODEL TEST_TRANS       PACKAGE RCHA             ON UNIT   1016 AT TIME STEP      5, STRESS PERIOD     31
 UBDSV06 SAVING              CHD IN MODEL TEST_TRANS       PACKAGE TEST_TRANS      CONNECTED TO MODEL TEST_TRANS       PACKAGE CHD              ON UNIT   1016 AT TIME STEP      5, STRESS PERIOD     31

 HEAD WILL BE SAVED ON UNIT 1017 AT END OF TIME STEP    5, STRESS PERIOD   31
 UBDSV1 SAVING           STO-SS ON UNIT   1016 AT TIME STEP      6, STRESS PERIOD     31
 UBDSV1 SAVING           STO-SY ON UNIT   1016 AT TIME STEP      6, STRESS PERIOD     31
 UBDSV1 SAVING     FLOW-JA-FACE ON UNIT   1016 AT TIME STEP      6, STRESS PERIOD     31
 UBDSV06 SAVING              RCH IN MODEL TEST_TRANS       PACKAGE TEST_TRANS      CONNECTED TO MODEL TEST_TRANS       PACKAGE RCHA             ON UNIT   1016 AT TIME STEP      6, STRESS PERIOD     31
 UBDSV06 SAVING              CHD IN MODEL TEST_TRANS       PACKAGE TEST_TRANS      CONNECTED TO MODEL TEST_TRANS       PACKAGE CHD              ON UNIT   1016 AT TIME STEP      6, STRESS PERIOD     31

 HEAD WILL BE SAVED ON UNIT 1017 AT END OF TIME STEP    6, STRESS PERIOD   31
 UBDSV1 SAVING           STO-SS ON UNIT   1016 AT TIME STEP      7, STRESS PERIOD     31
 UBDSV1 SAVING           STO-SY ON UNIT   1016 AT TIME STEP      7, STRESS PERIOD     31
 UBDSV1 SAVING     FLOW-JA-FACE ON UNIT   1016 AT TIME STEP      7, STRESS PERIOD     31
 UBDSV06 SAVING              RCH IN MODEL TEST_TRANS       PACKAGE TEST_TRANS      CONNECTED TO MODEL TEST_TRANS       PACKAGE RCHA             ON UNIT   1016 AT TIME STEP      7, STRESS PERIOD     31
 UBDSV06 SAVING              CHD IN MODEL TEST_TRANS       PACKAGE TEST_TRANS      CONNECTED TO MODEL TEST_TRANS       PACKAGE CHD              ON UNIT   1016 AT TIME STEP      7, STRESS PERIOD     31

 HEAD WILL BE SAVED ON UNIT 1017 AT END OF TIME STEP    7, STRESS PERIOD   31
 UBDSV1 SAVING           STO-SS ON UNIT   1016 AT TIME STEP      8, STRESS PERIOD     31
 UBDSV1 SAVING           STO-SY ON UNIT   1016 AT TIME STEP      8, STRESS PERIOD     31
 UBDSV1 SAVING     FLOW-JA-FACE ON UNIT   1016 AT TIME STEP      8, STRESS PERIOD     31
 UBDSV06 SAVING              RCH IN MODEL TEST_TRANS       PACKAGE TEST_TRANS      CONNECTED TO MODEL TEST_TRANS       PACKAGE RCHA             ON UNIT   1016 AT TIME STEP      8, STRESS PERIOD     31
 UBDSV06 SAVING              CHD IN MODEL TEST_TRANS       PACKAGE TEST_TRANS      CONNECTED TO MODEL TEST_TRANS       PACKAGE CHD              ON UNIT   1016 AT TIME STEP      8, STRESS PERIOD     31

 HEAD WILL BE SAVED ON UNIT 1017 AT END OF TIME STEP    8, STRESS PERIOD   31
 UBDSV1 SAVING           STO-SS ON UNIT   1016 AT TIME STEP      9, STRESS PERIOD     31
 UBDSV1 SAVING           STO-SY ON UNIT   1016 AT TIME STEP      9, STRESS PERIOD     31
 UBDSV1 SAVING     FLOW-JA-FACE ON UNIT   1016 AT TIME STEP      9, STRESS PERIOD     31
 UBDSV06 SAVING              RCH IN MODEL TEST_TRANS       PACKAGE TEST_TRANS      CONNECTED TO MODEL TEST_TRANS       PACKAGE RCHA             ON UNIT   1016 AT TIME STEP      9, STRESS PERIOD     31
 UBDSV06 SAVING              CHD IN MODEL TEST_TRANS       PACKAGE TEST_TRANS      CONNECTED TO MODEL TEST_TRANS       PACKAGE CHD              ON UNIT   1016 AT TIME STEP      9, STRESS PERIOD     31

 HEAD WILL BE SAVED ON UNIT 1017 AT END OF TIME STEP    9, STRESS PERIOD   31
 UBDSV1 SAVING           STO-SS ON UNIT   1016 AT TIME STEP     10, STRESS PERIOD     31
 UBDSV1 SAVING           STO-SY ON UNIT   1016 AT TIME STEP     10, STRESS PERIOD     31
 UBDSV1 SAVING     FLOW-JA-FACE ON UNIT   1016 AT TIME STEP     10, STRESS PERIOD     31
 UBDSV06 SAVING              RCH IN MODEL TEST_TRANS       PACKAGE TEST_TRANS      CONNECTED TO MODEL TEST_TRANS       PACKAGE RCHA             ON UNIT   1016 AT TIME STEP     10, STRESS PERIOD     31
 UBDSV06 SAVING              CHD IN MODEL TEST_TRANS       PACKAGE TEST_TRANS      CONNECTED TO MODEL TEST_TRANS       PACKAGE CHD              ON UNIT   1016 AT TIME STEP     10, STRESS PERIOD     31
1
  HEAD IN LAYER   1 AT END OF TIME STEP  10 IN STRESS PERIOD   31
  ---------------------------------------------------------------------------

            1           2           3           4           5           6           7           8           9          10
           11          12          13          14          15          16          17          18          19          20
           21          22          23          24          25          26          27          28          29          30
 ........................................................................................................................
   1    27.61       27.61       27.60       27.59       27.58       27.56       27.54       27.52       27.49       27.46    
        27.42       27.39       27.34       27.29       27.24       27.18       27.12       27.05       26.97       26.89    
        26.80       26.70       26.59       26.47       26.34       26.20       26.05       25.88       25.70       25.49    
   2    27.61       27.61       27.60       27.59       27.58       27.56       27.54       27.52       27.49       27.46    
        27.42       27.39       27.34       27.29       27.24       27.18       27.12       27.05       26.97       26.89    
        26.80       26.70       26.59       26.47       26.34       26.20       26.05       25.88       25.70       25.49    
   3    27.61       27.61       27.60       27.59       27.58       27.56       27.54       27.52       27.49       27.46    
        27.42       27.39       27.34       27.29       27.24       27.18       27.12       27.05       26.97       26.89    
        26.80       26.70       26.59       26.47       26.34       26.20       26.05       25.88       25.70       25.49    
   4    27.61       27.61       27.60       27.59       27.58       27.56       27.54       27.52       27.49       27.46    
        27.42       27.39       27.34       27.29       27.24       27.18       27.12       27.05       26.97       26.89    
        26.80       26.70       26.59       26.47       26.34       26.20       26.05       25.88       25.70       25.49    
   5    27.61       27.61       27.60       27.59       27.58       27.56       27.54       27.52       27.49       27.46    
        27.42       27.39       27.34       27.29       27.24       27.18       27.12       27.05       26.97       26.89    
        26.80       26.70       26.59       26.47       26.34       26.20       26.05       25.88       25.70       25.49    
   6    27.61       27.61       27.60       27.59       27.58       27.56       27.54       27.52       27.49       27.46    
        27.42       27.39       27.34       27.29       27.24       27.18       27.12       27.05       26.97       26.89    
        26.80       26.70       26.59       26.47       26.34       26.20       26.05       25.88       25.70       25.49    
   7    27.61       27.61       27.60       27.59       27.58       27.56       27.54       27.52       27.49       27.46    
        27.42       27.39       27.34       27.29       27.24       27.18       27.12       27.05       26.97       26.89    
        26.80       26.70       26.59       26.47       26.34       26.20       26.05       25.88       25.70       25.49    
   8    27.61       27.61       27.60       27.59       27.58       27.56       27.54       27.52       27.49       27.46    
        27.42       27.39       27.34       27.29       27.24       27.18       27.12       27.05       26.97       26.89    
        26.80       26.70       26.59       26.47       26.34       26.20       26.05       25.88       25.70       25.49    
   9    27.61       27.61       27.60       27.59       27.58       27.56       27.54       27.52       27.49       27.46    
        27.42       27.39       27.34       27.29       27.24       27.18       27.12       27.05       26.97       26.89    
        26.80       26.70       26.59       26.47       26.34       26.20       26.05       25.88       25.70       25.49    
  10    27.61       27.61       27.60       27.59       27.58       27.56       27.54       27.52       27.49       27.46    
        27.42       27.39       27.34       27.29       27.24       27.18       27.12       27.05       26.97       26.89    
        26.80       26.70       26.59       26.47       26.34       26.20       26.05       25.88       25.70       25.49    
  11    27.61       27.61       27.60       27.59       27.58       27.56       27.54       27.52       27.49       27.46    
        27.42       27.39       27.34       27.29       27.24       27.18       27.12       27.05       26.97       26.89    
        26.80       26.70       26.59       26.47       26.34       26.20       26.05       25.88       25.70       25.49    
  12    27.61       27.61       27.60       27.59       27.58       27.56       27.54       27.52       27.49       27.46    
        27.42       27.39       27.34       27.29       27.24       27.18       27.12       27.05       26.97       26.89    
        26.80       26.70       26.59       26.47       26.34       26.20       26.05       25.88       25.70       25.49    
  13    27.61       27.61       27.60       27.59       27.58       27.56       27.54       27.52       27.49       27.46    
        27.42       27.39       27.34       27.29       27.24       27.18       27.12       27.05       26.97       26.89    
        26.80       26.70       26.59       26.47       26.34       26.20       26.05       25.88       25.70       25.49    
  14    27.61       27.61       27.60       27.59       27.58       27.56       27.54       27.52       27.49       27.46    
        27.42       27.39       27.34       27.29       27.24       27.18       27.12       27.05       26.97       26.89    
        26.80       26.70       26.59       26.47       26.34       26.20       26.05       25.88       25.70       25.49    
  15    27.61       27.61       27.60       27.59       27.58       27.56       27.54       27.52       27.49       27.46    
        27.42       27.39       27.34       27.29       27.24       27.18       27.12       27.05       26.97       26.89    
        26.80       26.70       26.59       26.47       26.34       26.20       26.05       25.88       25.70       25.49    
  16    27.61       27.61       27.60       27.59       27.58       27.56       27.54       27.52       27.49       27.46    
        27.42       27.39       27.34       27.29       27.24       27.18       27.12       27.05       26.97       26.89    
        26.80       26.70       26.59       26.47       26.34       26.20       26.05       25.88       25.70       25.49    
  17    27.61       27.61       27.60       27.59       27.58       27.56       27.54       27.52       27.49       27.46    
        27.42       27.39       27.34       27.29       27.24       27.18       27.12       27.05       26.97       26.89    
        26.80       26.70       26.59       26.47       26.34       26.20       26.05       25.88       25.70       25.49    
  18    27.61       27.61       27.60       27.59       27.58       27.56       27.54       27.52       27.49       27.46    
        27.42       27.39       27.34       27.29       27.24       27.18       27.12       27.05       26.97       26.89    
        26.80       26.70       26.59       26.47       26.34       26.20       26.05       25.88       25.70       25.49    
  19    27.61       27.61       27.60       27.59       27.58       27.56       27.54       27.52       27.49       27.46    
        27.42       27.39       27.34       27.29       27.24       27.18       27.12       27.05       26.97       26.89    
        26.80       26.70       26.59       26.47       26.34       26.20       26.05       25.88       25.70       25.49    
  20    27.61       27.61       27.60       27.59       27.58       27.56       27.54       27.52       27.49       27.46    
        27.42       27.39       27.34       27.29       27.24       27.18       27.12       27.05       26.97       26.89    
        26.80       26.70       26.59       26.47       26.34       26.20       26.05       25.88       25.70       25.49    
  21    27.61       27.61       27.60       27.59       27.58       27.56       27.54       27.52       27.49       27.46    
        27.42       27.39       27.34       27.29       27.24       27.18       27.12       27.05       26.97       26.89    
        26.80       26.70       26.59       26.47       26.34       26.20       26.05       25.88       25.70       25.49    
  22    27.61       27.61       27.60       27.59       27.58       27.56       27.54       27.52       27.49       27.46    
        27.42       27.39       27.34       27.29       27.24       27.18       27.12       27.05       26.97       26.89    
        26.80       26.70       26.59       26.47       26.34       26.20       26.05       25.88       25.70       25.49    
  23    27.61       27.61       27.60       27.59       27.58       27.56       27.54       27.52       27.49       27.46    
        27.42       27.39       27.34       27.29       27.24       27.18       27.12       27.05       26.97       26.89    
        26.80       26.70       26.59       26.47       26.34       26.20       26.05       25.88       25.70       25.49    
  24    27.61       27.61       27.60       27.59       27.58       27.56       27.54       27.52       27.49       27.46    
        27.42       27.39       27.34       27.29       27.24       27.18       27.12       27.05       26.97       26.89    
        26.80       26.70       26.59       26.47       26.34       26.20       26.05       25.88       25.70       25.49    
  25    27.61       27.61       27.60       27.59       27.58       27.56       27.54       27.52       27.49       27.46    
        27.42       27.39       27.34       27.29       27.24       27.18       27.12       27.05       26.97       26.89    
        26.80       26.70       26.59       26.47       26.34       26.20       26.05       25.88       25.70       25.49    
  26    27.61       27.61       27.60       27.59       27.58       27.56       27.54       27.52       27.49       27.46    
        27.42       27.39       27.34       27.29       27.24       27.18       27.12       27.05       26.97       26.89    
        26.80       26.70       26.59       26.47       26.34       26.20       26.05       25.88       25.70       25.49    
  27    27.61       27.61       27.60       27.59       27.58       27.56       27.54       27.52       27.49       27.46    
        27.42       27.39       27.34       27.29       27.24       27.18       27.12       27.05       26.97       26.89    
        26.80       26.70       26.59       26.47       26.34       26.20       26.05       25.88       25.70       25.49    
  28    27.61       27.61       27.60       27.59       27.58       27.56       27.54       27.52       27.49       27.46    
        27.42       27.39       27.34       27.29       27.24       27.18       27.12       27.05       26.97       26.89    
        26.80       26.70       26.59       26.47       26.34       26.20       26.05       25.88       25.70       25.49    
  29    27.61       27.61       27.60       27.59       27.58       27.56       27.54       27.52       27.49       27.46    
        27.42       27.39       27.34       27.29       27.24       27.18       27.12       27.05       26.97       26.89    
        26.80       26.70       26.59       26.47       26.34       26.20       26.05       25.88       25.70       25.49    
  30    27.61       27.61       27.60       27.59       27.58       27.56       27.54       27.52       27.49       27.46    
        27.42       27.39       27.34       27.29       27.24       27.18       27.12       27.05       26.97       26.89    
        26.80       26.70       26.59       26.47       26.34       26.20       26.05       25.88       25.70       25.49    

 HEAD WILL BE SAVED ON UNIT 1017 AT END OF TIME STEP   10, STRESS PERIOD   31


  VOLUME BUDGET FOR ENTIRE MODEL AT END OF TIME STEP   10, STRESS PERIOD  31
  ---------------------------------------------------------------------------------------------------

     CUMULATIVE VOLUME      L**3       RATES FOR THIS TIME STEP      L**3/T          PACKAGE NAME    
     ------------------                 ------------------------                     ----------------

           IN:                                      IN:
           ---                                      ---
              STO-SS =          54.5250                STO-SS =           0.1360     STORAGE         
              STO-SY =       35081.3600                STO-SY =          87.6280     STORAGE         
                 RCH =      145754.8585                   RCH =          47.6712     RCHA            
                 CHD =        3520.9028                   CHD =           0.0000     CHD             

            TOTAL IN =      184411.6463              TOTAL IN =         135.4352

          OUT:                                     OUT:
          ----                                     ----
              STO-SS =          43.5137                STO-SS =           0.0000     STORAGE         
              STO-SY =       28460.7458                STO-SY =           0.0000     STORAGE         
                 RCH =           0.0000                   RCH =           0.0000     RCHA            
                 CHD =      155906.7603                   CHD =         135.4271     CHD             

           TOTAL OUT =      184411.0198             TOTAL OUT =         135.4271

            IN - OUT =           0.6265              IN - OUT =       8.1297E-03

 PERCENT DISCREPANCY =           0.00     PERCENT DISCREPANCY =           0.01




         TIME SUMMARY AT END OF TIME STEP   10 IN STRESS PERIOD   31
                    SECONDS     MINUTES      HOURS       DAYS        YEARS
                    -----------------------------------------------------------
   TIME STEP LENGTH 2.59200E+05  4320.0      72.000      3.0000     8.21355E-03
 STRESS PERIOD TIME 2.59200E+06  43200.      720.00      30.000     8.21355E-02
         TOTAL TIME 7.78464E+07 1.29744E+06  21624.      901.00      2.4668    

 OUTPUT CONTROL FOR STRESS PERIOD 32 IS REPEATED USING SETTINGS FROM A PREVIOUS STRESS PERIOD.


 STRESS PERIOD 32 IS TRANSIENT


                 RECHARGE =  0.1095890E-02
 UBDSV1 SAVING           STO-SS ON UNIT   1016 AT TIME STEP      1, STRESS PERIOD     32
 UBDSV1 SAVING           STO-SY ON UNIT   1016 AT TIME STEP      1, STRESS PERIOD     32
 UBDSV1 SAVING     FLOW-JA-FACE ON UNIT   1016 AT TIME STEP      1, STRESS PERIOD     32
 UBDSV06 SAVING              RCH IN MODEL TEST_TRANS       PACKAGE TEST_TRANS      CONNECTED TO MODEL TEST_TRANS       PACKAGE RCHA             ON UNIT   1016 AT TIME STEP      1, STRESS PERIOD     32
 UBDSV06 SAVING              CHD IN MODEL TEST_TRANS       PACKAGE TEST_TRANS      CONNECTED TO MODEL TEST_TRANS       PACKAGE CHD              ON UNIT   1016 AT TIME STEP      1, STRESS PERIOD     32
1
  HEAD IN LAYER   1 AT END OF TIME STEP   1 IN STRESS PERIOD   32
  ---------------------------------------------------------------------------

            1           2           3           4           5           6           7           8           9          10
           11          12          13          14          15          16          17          18          19          20
           21          22          23          24          25          26          27          28          29          30
 ........................................................................................................................
   1    27.61       27.61       27.60       27.59       27.58       27.56       27.54       27.51       27.49       27.45    
        27.42       27.38       27.33       27.29       27.23       27.17       27.11       27.04       26.96       26.88    
        26.78       26.68       26.57       26.45       26.32       26.17       25.99       25.79       25.54       25.20    
   2    27.61       27.61       27.60       27.59       27.58       27.56       27.54       27.51       27.49       27.45    
        27.42       27.38       27.33       27.29       27.23       27.17       27.11       27.04       26.96       26.88    
        26.78       26.68       26.57       26.45       26.32       26.17       25.99       25.79       25.54       25.20    
   3    27.61       27.61       27.60       27.59       27.58       27.56       27.54       27.51       27.49       27.45    
        27.42       27.38       27.33       27.29       27.23       27.17       27.11       27.04       26.96       26.88    
        26.78       26.68       26.57       26.45       26.32       26.17       25.99       25.79       25.54       25.20    
   4    27.61       27.61       27.60       27.59       27.58       27.56       27.54       27.51       27.49       27.45    
        27.42       27.38       27.33       27.29       27.23       27.17       27.11       27.04       26.96       26.88    
        26.78       26.68       26.57       26.45       26.32       26.17       25.99       25.79       25.54       25.20    
   5    27.61       27.61       27.60       27.59       27.58       27.56       27.54       27.51       27.49       27.45    
        27.42       27.38       27.33       27.29       27.23       27.17       27.11       27.04       26.96       26.88    
        26.78       26.68       26.57       26.45       26.32       26.17       25.99       25.79       25.54       25.20    
   6    27.61       27.61       27.60       27.59       27.58       27.56       27.54       27.51       27.49       27.45    
        27.42       27.38       27.33       27.29       27.23       27.17       27.11       27.04       26.96       26.88    
        26.78       26.68       26.57       26.45       26.32       26.17       25.99       25.79       25.54       25.20    
   7    27.61       27.61       27.60       27.59       27.58       27.56       27.54       27.51       27.49       27.45    
        27.42       27.38       27.33       27.29       27.23       27.17       27.11       27.04       26.96       26.88    
        26.78       26.68       26.57       26.45       26.32       26.17       25.99       25.79       25.54       25.20    
   8    27.61       27.61       27.60       27.59       27.58       27.56       27.54       27.51       27.49       27.45    
        27.42       27.38       27.33       27.29       27.23       27.17       27.11       27.04       26.96       26.88    
        26.78       26.68       26.57       26.45       26.32       26.17       25.99       25.79       25.54       25.20    
   9    27.61       27.61       27.60       27.59       27.58       27.56       27.54       27.51       27.49       27.45    
        27.42       27.38       27.33       27.29       27.23       27.17       27.11       27.04       26.96       26.88    
        26.78       26.68       26.57       26.45       26.32       26.17       25.99       25.79       25.54       25.20    
  10    27.61       27.61       27.60       27.59       27.58       27.56       27.54       27.51       27.49       27.45    
        27.42       27.38       27.33       27.29       27.23       27.17       27.11       27.04       26.96       26.88    
        26.78       26.68       26.57       26.45       26.32       26.17       25.99       25.79       25.54       25.20    
  11    27.61       27.61       27.60       27.59       27.58       27.56       27.54       27.51       27.49       27.45    
        27.42       27.38       27.33       27.29       27.23       27.17       27.11       27.04       26.96       26.88    
        26.78       26.68       26.57       26.45       26.32       26.17       25.99       25.79       25.54       25.20    
  12    27.61       27.61       27.60       27.59       27.58       27.56       27.54       27.51       27.49       27.45    
        27.42       27.38       27.33       27.29       27.23       27.17       27.11       27.04       26.96       26.88    
        26.78       26.68       26.57       26.45       26.32       26.17       25.99       25.79       25.54       25.20    
  13    27.61       27.61       27.60       27.59       27.58       27.56       27.54       27.51       27.49       27.45    
        27.42       27.38       27.33       27.29       27.23       27.17       27.11       27.04       26.96       26.88    
        26.78       26.68       26.57       26.45       26.32       26.17       25.99       25.79       25.54       25.20    
  14    27.61       27.61       27.60       27.59       27.58       27.56       27.54       27.51       27.49       27.45    
        27.42       27.38       27.33       27.29       27.23       27.17       27.11       27.04       26.96       26.88    
        26.78       26.68       26.57       26.45       26.32       26.17       25.99       25.79       25.54       25.20    
  15    27.61       27.61       27.60       27.59       27.58       27.56       27.54       27.51       27.49       27.45    
        27.42       27.38       27.33       27.29       27.23       27.17       27.11       27.04       26.96       26.88    
        26.78       26.68       26.57       26.45       26.32       26.17       25.99       25.79       25.54       25.20    
  16    27.61       27.61       27.60       27.59       27.58       27.56       27.54       27.51       27.49       27.45    
        27.42       27.38       27.33       27.29       27.23       27.17       27.11       27.04       26.96       26.88    
        26.78       26.68       26.57       26.45       26.32       26.17       25.99       25.79       25.54       25.20    
  17    27.61       27.61       27.60       27.59       27.58       27.56       27.54       27.51       27.49       27.45    
        27.42       27.38       27.33       27.29       27.23       27.17       27.11       27.04       26.96       26.88    
        26.78       26.68       26.57       26.45       26.32       26.17       25.99       25.79       25.54       25.20    
  18    27.61       27.61       27.60       27.59       27.58       27.56       27.54       27.51       27.49       27.45    
        27.42       27.38       27.33       27.29       27.23       27.17       27.11       27.04       26.96       26.88    
        26.78       26.68       26.57       26.45       26.32       26.17       25.99       25.79       25.54       25.20    
  19    27.61       27.61       27.60       27.59       27.58       27.56       27.54       27.51       27.49       27.45    
        27.42       27.38       27.33       27.29       27.23       27.17       27.11       27.04       26.96       26.88    
        26.78       26.68       26.57       26.45       26.32       26.17       25.99       25.79       25.54       25.20    
  20    27.61       27.61       27.60       27.59       27.58       27.56       27.54       27.51       27.49       27.45    
        27.42       27.38       27.33       27.29       27.23       27.17       27.11       27.04       26.96       26.88    
        26.78       26.68       26.57       26.45       26.32       26.17       25.99       25.79       25.54       25.20    
  21    27.61       27.61       27.60       27.59       27.58       27.56       27.54       27.51       27.49       27.45    
        27.42       27.38       27.33       27.29       27.23       27.17       27.11       27.04       26.96       26.88    
        26.78       26.68       26.57       26.45       26.32       26.17       25.99       25.79       25.54       25.20    
  22    27.61       27.61       27.60       27.59       27.58       27.56       27.54       27.51       27.49       27.45    
        27.42       27.38       27.33       27.29       27.23       27.17       27.11       27.04       26.96       26.88    
        26.78       26.68       26.57       26.45       26.32       26.17       25.99       25.79       25.54       25.20    
  23    27.61       27.61       27.60       27.59       27.58       27.56       27.54       27.51       27.49       27.45    
        27.42       27.38       27.33       27.29       27.23       27.17       27.11       27.04       26.96       26.88    
        26.78       26.68       26.57       26.45       26.32       26.17       25.99       25.79       25.54       25.20    
  24    27.61       27.61       27.60       27.59       27.58       27.56       27.54       27.51       27.49       27.45    
        27.42       27.38       27.33       27.29       27.23       27.17       27.11       27.04       26.96       26.88    
        26.78       26.68       26.57       26.45       26.32       26.17       25.99       25.79       25.54       25.20    
  25    27.61       27.61       27.60       27.59       27.58       27.56       27.54       27.51       27.49       27.45    
        27.42       27.38       27.33       27.29       27.23       27.17       27.11       27.04       26.96       26.88    
        26.78       26.68       26.57       26.45       26.32       26.17       25.99       25.79       25.54       25.20    
  26    27.61       27.61       27.60       27.59       27.58       27.56       27.54       27.51       27.49       27.45    
        27.42       27.38       27.33       27.29       27.23       27.17       27.11       27.04       26.96       26.88    
        26.78       26.68       26.57       26.45       26.32       26.17       25.99       25.79       25.54       25.20    
  27    27.61       27.61       27.60       27.59       27.58       27.56       27.54       27.51       27.49       27.45    
        27.42       27.38       27.33       27.29       27.23       27.17       27.11       27.04       26.96       26.88    
        26.78       26.68       26.57       26.45       26.32       26.17       25.99       25.79       25.54       25.20    
  28    27.61       27.61       27.60       27.59       27.58       27.56       27.54       27.51       27.49       27.45    
        27.42       27.38       27.33       27.29       27.23       27.17       27.11       27.04       26.96       26.88    
        26.78       26.68       26.57       26.45       26.32       26.17       25.99       25.79       25.54       25.20    
  29    27.61       27.61       27.60       27.59       27.58       27.56       27.54       27.51       27.49       27.45    
        27.42       27.38       27.33       27.29       27.23       27.17       27.11       27.04       26.96       26.88    
        26.78       26.68       26.57       26.45       26.32       26.17       25.99       25.79       25.54       25.20    
  30    27.61       27.61       27.60       27.59       27.58       27.56       27.54       27.51       27.49       27.45    
        27.42       27.38       27.33       27.29       27.23       27.17       27.11       27.04       26.96       26.88    
        26.78       26.68       26.57       26.45       26.32       26.17       25.99       25.79       25.54       25.20    

 HEAD WILL BE SAVED ON UNIT 1017 AT END OF TIME STEP    1, STRESS PERIOD   32



         TIME SUMMARY AT END OF TIME STEP    1 IN STRESS PERIOD   32
                    SECONDS     MINUTES      HOURS       DAYS        YEARS
                    -----------------------------------------------------------
   TIME STEP LENGTH 2.59200E+05  4320.0      72.000      3.0000     8.21355E-03
 STRESS PERIOD TIME 2.59200E+05  4320.0      72.000      3.0000     8.21355E-03
         TOTAL TIME 7.81056E+07 1.30176E+06  21696.      904.00      2.4750    
 UBDSV1 SAVING           STO-SS ON UNIT   1016 AT TIME STEP      2, STRESS PERIOD     32
 UBDSV1 SAVING           STO-SY ON UNIT   1016 AT TIME STEP      2, STRESS PERIOD     32
 UBDSV1 SAVING     FLOW-JA-FACE ON UNIT   1016 AT TIME STEP      2, STRESS PERIOD     32
 UBDSV06 SAVING              RCH IN MODEL TEST_TRANS       PACKAGE TEST_TRANS      CONNECTED TO MODEL TEST_TRANS       PACKAGE RCHA             ON UNIT   1016 AT TIME STEP      2, STRESS PERIOD     32
 UBDSV06 SAVING              CHD IN MODEL TEST_TRANS       PACKAGE TEST_TRANS      CONNECTED TO MODEL TEST_TRANS       PACKAGE CHD              ON UNIT   1016 AT TIME STEP      2, STRESS PERIOD     32

 HEAD WILL BE SAVED ON UNIT 1017 AT END OF TIME STEP    2, STRESS PERIOD   32
 UBDSV1 SAVING           STO-SS ON UNIT   1016 AT TIME STEP      3, STRESS PERIOD     32
 UBDSV1 SAVING           STO-SY ON UNIT   1016 AT TIME STEP      3, STRESS PERIOD     32
 UBDSV1 SAVING     FLOW-JA-FACE ON UNIT   1016 AT TIME STEP      3, STRESS PERIOD     32
 UBDSV06 SAVING              RCH IN MODEL TEST_TRANS       PACKAGE TEST_TRANS      CONNECTED TO MODEL TEST_TRANS       PACKAGE RCHA             ON UNIT   1016 AT TIME STEP      3, STRESS PERIOD     32
 UBDSV06 SAVING              CHD IN MODEL TEST_TRANS       PACKAGE TEST_TRANS      CONNECTED TO MODEL TEST_TRANS       PACKAGE CHD              ON UNIT   1016 AT TIME STEP      3, STRESS PERIOD     32

 HEAD WILL BE SAVED ON UNIT 1017 AT END OF TIME STEP    3, STRESS PERIOD   32
 UBDSV1 SAVING           STO-SS ON UNIT   1016 AT TIME STEP      4, STRESS PERIOD     32
 UBDSV1 SAVING           STO-SY ON UNIT   1016 AT TIME STEP      4, STRESS PERIOD     32
 UBDSV1 SAVING     FLOW-JA-FACE ON UNIT   1016 AT TIME STEP      4, STRESS PERIOD     32
 UBDSV06 SAVING              RCH IN MODEL TEST_TRANS       PACKAGE TEST_TRANS      CONNECTED TO MODEL TEST_TRANS       PACKAGE RCHA             ON UNIT   1016 AT TIME STEP      4, STRESS PERIOD     32
 UBDSV06 SAVING              CHD IN MODEL TEST_TRANS       PACKAGE TEST_TRANS      CONNECTED TO MODEL TEST_TRANS       PACKAGE CHD              ON UNIT   1016 AT TIME STEP      4, STRESS PERIOD     32

 HEAD WILL BE SAVED ON UNIT 1017 AT END OF TIME STEP    4, STRESS PERIOD   32
 UBDSV1 SAVING           STO-SS ON UNIT   1016 AT TIME STEP      5, STRESS PERIOD     32
 UBDSV1 SAVING           STO-SY ON UNIT   1016 AT TIME STEP      5, STRESS PERIOD     32
 UBDSV1 SAVING     FLOW-JA-FACE ON UNIT   1016 AT TIME STEP      5, STRESS PERIOD     32
 UBDSV06 SAVING              RCH IN MODEL TEST_TRANS       PACKAGE TEST_TRANS      CONNECTED TO MODEL TEST_TRANS       PACKAGE RCHA             ON UNIT   1016 AT TIME STEP      5, STRESS PERIOD     32
 UBDSV06 SAVING              CHD IN MODEL TEST_TRANS       PACKAGE TEST_TRANS      CONNECTED TO MODEL TEST_TRANS       PACKAGE CHD              ON UNIT   1016 AT TIME STEP      5, STRESS PERIOD     32

 HEAD WILL BE SAVED ON UNIT 1017 AT END OF TIME STEP    5, STRESS PERIOD   32
 UBDSV1 SAVING           STO-SS ON UNIT   1016 AT TIME STEP      6, STRESS PERIOD     32
 UBDSV1 SAVING           STO-SY ON UNIT   1016 AT TIME STEP      6, STRESS PERIOD     32
 UBDSV1 SAVING     FLOW-JA-FACE ON UNIT   1016 AT TIME STEP      6, STRESS PERIOD     32
 UBDSV06 SAVING              RCH IN MODEL TEST_TRANS       PACKAGE TEST_TRANS      CONNECTED TO MODEL TEST_TRANS       PACKAGE RCHA             ON UNIT   1016 AT TIME STEP      6, STRESS PERIOD     32
 UBDSV06 SAVING              CHD IN MODEL TEST_TRANS       PACKAGE TEST_TRANS      CONNECTED TO MODEL TEST_TRANS       PACKAGE CHD              ON UNIT   1016 AT TIME STEP      6, STRESS PERIOD     32

 HEAD WILL BE SAVED ON UNIT 1017 AT END OF TIME STEP    6, STRESS PERIOD   32
 UBDSV1 SAVING           STO-SS ON UNIT   1016 AT TIME STEP      7, STRESS PERIOD     32
 UBDSV1 SAVING           STO-SY ON UNIT   1016 AT TIME STEP      7, STRESS PERIOD     32
 UBDSV1 SAVING     FLOW-JA-FACE ON UNIT   1016 AT TIME STEP      7, STRESS PERIOD     32
 UBDSV06 SAVING              RCH IN MODEL TEST_TRANS       PACKAGE TEST_TRANS      CONNECTED TO MODEL TEST_TRANS       PACKAGE RCHA             ON UNIT   1016 AT TIME STEP      7, STRESS PERIOD     32
 UBDSV06 SAVING              CHD IN MODEL TEST_TRANS       PACKAGE TEST_TRANS      CONNECTED TO MODEL TEST_TRANS       PACKAGE CHD              ON UNIT   1016 AT TIME STEP      7, STRESS PERIOD     32

 HEAD WILL BE SAVED ON UNIT 1017 AT END OF TIME STEP    7, STRESS PERIOD   32
 UBDSV1 SAVING           STO-SS ON UNIT   1016 AT TIME STEP      8, STRESS PERIOD     32
 UBDSV1 SAVING           STO-SY ON UNIT   1016 AT TIME STEP      8, STRESS PERIOD     32
 UBDSV1 SAVING     FLOW-JA-FACE ON UNIT   1016 AT TIME STEP      8, STRESS PERIOD     32
 UBDSV06 SAVING              RCH IN MODEL TEST_TRANS       PACKAGE TEST_TRANS      CONNECTED TO MODEL TEST_TRANS       PACKAGE RCHA             ON UNIT   1016 AT TIME STEP      8, STRESS PERIOD     32
 UBDSV06 SAVING              CHD IN MODEL TEST_TRANS       PACKAGE TEST_TRANS      CONNECTED TO MODEL TEST_TRANS       PACKAGE CHD              ON UNIT   1016 AT TIME STEP      8, STRESS PERIOD     32

 HEAD WILL BE SAVED ON UNIT 1017 AT END OF TIME STEP    8, STRESS PERIOD   32
 UBDSV1 SAVING           STO-SS ON UNIT   1016 AT TIME STEP      9, STRESS PERIOD     32
 UBDSV1 SAVING           STO-SY ON UNIT   1016 AT TIME STEP      9, STRESS PERIOD     32
 UBDSV1 SAVING     FLOW-JA-FACE ON UNIT   1016 AT TIME STEP      9, STRESS PERIOD     32
 UBDSV06 SAVING              RCH IN MODEL TEST_TRANS       PACKAGE TEST_TRANS      CONNECTED TO MODEL TEST_TRANS       PACKAGE RCHA             ON UNIT   1016 AT TIME STEP      9, STRESS PERIOD     32
 UBDSV06 SAVING              CHD IN MODEL TEST_TRANS       PACKAGE TEST_TRANS      CONNECTED TO MODEL TEST_TRANS       PACKAGE CHD              ON UNIT   1016 AT TIME STEP      9, STRESS PERIOD     32

 HEAD WILL BE SAVED ON UNIT 1017 AT END OF TIME STEP    9, STRESS PERIOD   32
 UBDSV1 SAVING           STO-SS ON UNIT   1016 AT TIME STEP     10, STRESS PERIOD     32
 UBDSV1 SAVING           STO-SY ON UNIT   1016 AT TIME STEP     10, STRESS PERIOD     32
 UBDSV1 SAVING     FLOW-JA-FACE ON UNIT   1016 AT TIME STEP     10, STRESS PERIOD     32
 UBDSV06 SAVING              RCH IN MODEL TEST_TRANS       PACKAGE TEST_TRANS      CONNECTED TO MODEL TEST_TRANS       PACKAGE RCHA             ON UNIT   1016 AT TIME STEP     10, STRESS PERIOD     32
 UBDSV06 SAVING              CHD IN MODEL TEST_TRANS       PACKAGE TEST_TRANS      CONNECTED TO MODEL TEST_TRANS       PACKAGE CHD              ON UNIT   1016 AT TIME STEP     10, STRESS PERIOD     32
1
  HEAD IN LAYER   1 AT END OF TIME STEP  10 IN STRESS PERIOD   32
  ---------------------------------------------------------------------------

            1           2           3           4           5           6           7           8           9          10
           11          12          13          14          15          16          17          18          19          20
           21          22          23          24          25          26          27          28          29          30
 ........................................................................................................................
   1    27.57       27.56       27.56       27.55       27.53       27.51       27.49       27.46       27.43       27.40    
        27.36       27.31       27.26       27.21       27.15       27.08       27.01       26.93       26.85       26.76    
        26.66       26.55       26.43       26.30       26.16       26.00       25.83       25.64       25.44       25.20    
   2    27.57       27.56       27.56       27.55       27.53       27.51       27.49       27.46       27.43       27.40    
        27.36       27.31       27.26       27.21       27.15       27.08       27.01       26.93       26.85       26.76    
        26.66       26.55       26.43       26.30       26.16       26.00       25.83       25.64       25.44       25.20    
   3    27.57       27.56       27.56       27.55       27.53       27.51       27.49       27.46       27.43       27.40    
        27.36       27.31       27.26       27.21       27.15       27.08       27.01       26.93       26.85       26.76    
        26.66       26.55       26.43       26.30       26.16       26.00       25.83       25.64       25.44       25.20    
   4    27.57       27.56       27.56       27.55       27.53       27.51       27.49       27.46       27.43       27.40    
        27.36       27.31       27.26       27.21       27.15       27.08       27.01       26.93       26.85       26.76    
        26.66       26.55       26.43       26.30       26.16       26.00       25.83       25.64       25.44       25.20    
   5    27.57       27.56       27.56       27.55       27.53       27.51       27.49       27.46       27.43       27.40    
        27.36       27.31       27.26       27.21       27.15       27.08       27.01       26.93       26.85       26.76    
        26.66       26.55       26.43       26.30       26.16       26.00       25.83       25.64       25.44       25.20    
   6    27.57       27.56       27.56       27.55       27.53       27.51       27.49       27.46       27.43       27.40    
        27.36       27.31       27.26       27.21       27.15       27.08       27.01       26.93       26.85       26.76    
        26.66       26.55       26.43       26.30       26.16       26.00       25.83       25.64       25.44       25.20    
   7    27.57       27.56       27.56       27.55       27.53       27.51       27.49       27.46       27.43       27.40    
        27.36       27.31       27.26       27.21       27.15       27.08       27.01       26.93       26.85       26.76    
        26.66       26.55       26.43       26.30       26.16       26.00       25.83       25.64       25.44       25.20    
   8    27.57       27.56       27.56       27.55       27.53       27.51       27.49       27.46       27.43       27.40    
        27.36       27.31       27.26       27.21       27.15       27.08       27.01       26.93       26.85       26.76    
        26.66       26.55       26.43       26.30       26.16       26.00       25.83       25.64       25.44       25.20    
   9    27.57       27.56       27.56       27.55       27.53       27.51       27.49       27.46       27.43       27.40    
        27.36       27.31       27.26       27.21       27.15       27.08       27.01       26.93       26.85       26.76    
        26.66       26.55       26.43       26.30       26.16       26.00       25.83       25.64       25.44       25.20    
  10    27.57       27.56       27.56       27.55       27.53       27.51       27.49       27.46       27.43       27.40    
        27.36       27.31       27.26       27.21       27.15       27.08       27.01       26.93       26.85       26.76    
        26.66       26.55       26.43       26.30       26.16       26.00       25.83       25.64       25.44       25.20    
  11    27.57       27.56       27.56       27.55       27.53       27.51       27.49       27.46       27.43       27.40    
        27.36       27.31       27.26       27.21       27.15       27.08       27.01       26.93       26.85       26.76    
        26.66       26.55       26.43       26.30       26.16       26.00       25.83       25.64       25.44       25.20    
  12    27.57       27.56       27.56       27.55       27.53       27.51       27.49       27.46       27.43       27.40    
        27.36       27.31       27.26       27.21       27.15       27.08       27.01       26.93       26.85       26.76    
        26.66       26.55       26.43       26.30       26.16       26.00       25.83       25.64       25.44       25.20    
  13    27.57       27.56       27.56       27.55       27.53       27.51       27.49       27.46       27.43       27.40    
        27.36       27.31       27.26       27.21       27.15       27.08       27.01       26.93       26.85       26.76    
        26.66       26.55       26.43       26.30       26.16       26.00       25.83       25.64       25.44       25.20    
  14    27.57       27.56       27.56       27.55       27.53       27.51       27.49       27.46       27.43       27.40    
        27.36       27.31       27.26       27.21       27.15       27.08       27.01       26.93       26.85       26.76    
        26.66       26.55       26.43       26.30       26.16       26.00       25.83       25.64       25.44       25.20    
  15    27.57       27.56       27.56       27.55       27.53       27.51       27.49       27.46       27.43       27.40    
        27.36       27.31       27.26       27.21       27.15       27.08       27.01       26.93       26.85       26.76    
        26.66       26.55       26.43       26.30       26.16       26.00       25.83       25.64       25.44       25.20    
  16    27.57       27.56       27.56       27.55       27.53       27.51       27.49       27.46       27.43       27.40    
        27.36       27.31       27.26       27.21       27.15       27.08       27.01       26.93       26.85       26.76    
        26.66       26.55       26.43       26.30       26.16       26.00       25.83       25.64       25.44       25.20    
  17    27.57       27.56       27.56       27.55       27.53       27.51       27.49       27.46       27.43       27.40    
        27.36       27.31       27.26       27.21       27.15       27.08       27.01       26.93       26.85       26.76    
        26.66       26.55       26.43       26.30       26.16       26.00       25.83       25.64       25.44       25.20    
  18    27.57       27.56       27.56       27.55       27.53       27.51       27.49       27.46       27.43       27.40    
        27.36       27.31       27.26       27.21       27.15       27.08       27.01       26.93       26.85       26.76    
        26.66       26.55       26.43       26.30       26.16       26.00       25.83       25.64       25.44       25.20    
  19    27.57       27.56       27.56       27.55       27.53       27.51       27.49       27.46       27.43       27.40    
        27.36       27.31       27.26       27.21       27.15       27.08       27.01       26.93       26.85       26.76    
        26.66       26.55       26.43       26.30       26.16       26.00       25.83       25.64       25.44       25.20    
  20    27.57       27.56       27.56       27.55       27.53       27.51       27.49       27.46       27.43       27.40    
        27.36       27.31       27.26       27.21       27.15       27.08       27.01       26.93       26.85       26.76    
        26.66       26.55       26.43       26.30       26.16       26.00       25.83       25.64       25.44       25.20    
  21    27.57       27.56       27.56       27.55       27.53       27.51       27.49       27.46       27.43       27.40    
        27.36       27.31       27.26       27.21       27.15       27.08       27.01       26.93       26.85       26.76    
        26.66       26.55       26.43       26.30       26.16       26.00       25.83       25.64       25.44       25.20    
  22    27.57       27.56       27.56       27.55       27.53       27.51       27.49       27.46       27.43       27.40    
        27.36       27.31       27.26       27.21       27.15       27.08       27.01       26.93       26.85       26.76    
        26.66       26.55       26.43       26.30       26.16       26.00       25.83       25.64       25.44       25.20    
  23    27.57       27.56       27.56       27.55       27.53       27.51       27.49       27.46       27.43       27.40    
        27.36       27.31       27.26       27.21       27.15       27.08       27.01       26.93       26.85       26.76    
        26.66       26.55       26.43       26.30       26.16       26.00       25.83       25.64       25.44       25.20    
  24    27.57       27.56       27.56       27.55       27.53       27.51       27.49       27.46       27.43       27.40    
        27.36       27.31       27.26       27.21       27.15       27.08       27.01       26.93       26.85       26.76    
        26.66       26.55       26.43       26.30       26.16       26.00       25.83       25.64       25.44       25.20    
  25    27.57       27.56       27.56       27.55       27.53       27.51       27.49       27.46       27.43       27.40    
        27.36       27.31       27.26       27.21       27.15       27.08       27.01       26.93       26.85       26.76    
        26.66       26.55       26.43       26.30       26.16       26.00       25.83       25.64       25.44       25.20    
  26    27.57       27.56       27.56       27.55       27.53       27.51       27.49       27.46       27.43       27.40    
        27.36       27.31       27.26       27.21       27.15       27.08       27.01       26.93       26.85       26.76    
        26.66       26.55       26.43       26.30       26.16       26.00       25.83       25.64       25.44       25.20    
  27    27.57       27.56       27.56       27.55       27.53       27.51       27.49       27.46       27.43       27.40    
        27.36       27.31       27.26       27.21       27.15       27.08       27.01       26.93       26.85       26.76    
        26.66       26.55       26.43       26.30       26.16       26.00       25.83       25.64       25.44       25.20    
  28    27.57       27.56       27.56       27.55       27.53       27.51       27.49       27.46       27.43       27.40    
        27.36       27.31       27.26       27.21       27.15       27.08       27.01       26.93       26.85       26.76    
        26.66       26.55       26.43       26.30       26.16       26.00       25.83       25.64       25.44       25.20    
  29    27.57       27.56       27.56       27.55       27.53       27.51       27.49       27.46       27.43       27.40    
        27.36       27.31       27.26       27.21       27.15       27.08       27.01       26.93       26.85       26.76    
        26.66       26.55       26.43       26.30       26.16       26.00       25.83       25.64       25.44       25.20    
  30    27.57       27.56       27.56       27.55       27.53       27.51       27.49       27.46       27.43       27.40    
        27.36       27.31       27.26       27.21       27.15       27.08       27.01       26.93       26.85       26.76    
        26.66       26.55       26.43       26.30       26.16       26.00       25.83       25.64       25.44       25.20    

 HEAD WILL BE SAVED ON UNIT 1017 AT END OF TIME STEP   10, STRESS PERIOD   32


  VOLUME BUDGET FOR ENTIRE MODEL AT END OF TIME STEP   10, STRESS PERIOD  32
  ---------------------------------------------------------------------------------------------------

     CUMULATIVE VOLUME      L**3       RATES FOR THIS TIME STEP      L**3/T          PACKAGE NAME    
     ------------------                 ------------------------                     ----------------

           IN:                                      IN:
           ---                                      ---
              STO-SS =          57.4340                STO-SS =       7.0761E-02     STORAGE         
              STO-SY =       37001.5677                STO-SY =          45.9120     STORAGE         
                 RCH =      148615.1314                   RCH =          95.3424     RCHA            
                 CHD =        3520.9028                   CHD =           0.0000     CHD             

            TOTAL IN =      189195.0359              TOTAL IN =         141.3252

          OUT:                                     OUT:
          ----                                     ----
              STO-SS =          43.5137                STO-SS =           0.0000     STORAGE         
              STO-SY =       28460.7458                STO-SY =           0.0000     STORAGE         
                 RCH =           0.0000                   RCH =           0.0000     RCHA            
                 CHD =      160690.0353                   CHD =         141.3208     CHD             

           TOTAL OUT =      189194.2948             TOTAL OUT =         141.3208

            IN - OUT =           0.7411              IN - OUT =       4.3388E-03

 PERCENT DISCREPANCY =           0.00     PERCENT DISCREPANCY =           0.00




         TIME SUMMARY AT END OF TIME STEP   10 IN STRESS PERIOD   32
                    SECONDS     MINUTES      HOURS       DAYS        YEARS
                    -----------------------------------------------------------
   TIME STEP LENGTH 2.59200E+05  4320.0      72.000      3.0000     8.21355E-03
 STRESS PERIOD TIME 2.59200E+06  43200.      720.00      30.000     8.21355E-02
         TOTAL TIME 8.04384E+07 1.34064E+06  22344.      931.00      2.5489    

 OUTPUT CONTROL FOR STRESS PERIOD 33 IS REPEATED USING SETTINGS FROM A PREVIOUS STRESS PERIOD.


 STRESS PERIOD 33 IS TRANSIENT


                 RECHARGE =  0.1643840E-02
 UBDSV1 SAVING           STO-SS ON UNIT   1016 AT TIME STEP      1, STRESS PERIOD     33
 UBDSV1 SAVING           STO-SY ON UNIT   1016 AT TIME STEP      1, STRESS PERIOD     33
 UBDSV1 SAVING     FLOW-JA-FACE ON UNIT   1016 AT TIME STEP      1, STRESS PERIOD     33
 UBDSV06 SAVING              RCH IN MODEL TEST_TRANS       PACKAGE TEST_TRANS      CONNECTED TO MODEL TEST_TRANS       PACKAGE RCHA             ON UNIT   1016 AT TIME STEP      1, STRESS PERIOD     33
 UBDSV06 SAVING              CHD IN MODEL TEST_TRANS       PACKAGE TEST_TRANS      CONNECTED TO MODEL TEST_TRANS       PACKAGE CHD              ON UNIT   1016 AT TIME STEP      1, STRESS PERIOD     33
1
  HEAD IN LAYER   1 AT END OF TIME STEP   1 IN STRESS PERIOD   33
  ---------------------------------------------------------------------------

            1           2           3           4           5           6           7           8           9          10
           11          12          13          14          15          16          17          18          19          20
           21          22          23          24          25          26          27          28          29          30
 ........................................................................................................................
   1    27.57       27.57       27.56       27.55       27.53       27.51       27.49       27.46       27.43       27.40    
        27.36       27.31       27.26       27.21       27.15       27.08       27.01       26.93       26.85       26.75    
        26.65       26.54       26.42       26.29       26.14       25.98       25.79       25.58       25.31       24.94    
   2    27.57       27.57       27.56       27.55       27.53       27.51       27.49       27.46       27.43       27.40    
        27.36       27.31       27.26       27.21       27.15       27.08       27.01       26.93       26.85       26.75    
        26.65       26.54       26.42       26.29       26.14       25.98       25.79       25.58       25.31       24.94    
   3    27.57       27.57       27.56       27.55       27.53       27.51       27.49       27.46       27.43       27.40    
        27.36       27.31       27.26       27.21       27.15       27.08       27.01       26.93       26.85       26.75    
        26.65       26.54       26.42       26.29       26.14       25.98       25.79       25.58       25.31       24.94    
   4    27.57       27.57       27.56       27.55       27.53       27.51       27.49       27.46       27.43       27.40    
        27.36       27.31       27.26       27.21       27.15       27.08       27.01       26.93       26.85       26.75    
        26.65       26.54       26.42       26.29       26.14       25.98       25.79       25.58       25.31       24.94    
   5    27.57       27.57       27.56       27.55       27.53       27.51       27.49       27.46       27.43       27.40    
        27.36       27.31       27.26       27.21       27.15       27.08       27.01       26.93       26.85       26.75    
        26.65       26.54       26.42       26.29       26.14       25.98       25.79       25.58       25.31       24.94    
   6    27.57       27.57       27.56       27.55       27.53       27.51       27.49       27.46       27.43       27.40    
        27.36       27.31       27.26       27.21       27.15       27.08       27.01       26.93       26.85       26.75    
        26.65       26.54       26.42       26.29       26.14       25.98       25.79       25.58       25.31       24.94    
   7    27.57       27.57       27.56       27.55       27.53       27.51       27.49       27.46       27.43       27.40    
        27.36       27.31       27.26       27.21       27.15       27.08       27.01       26.93       26.85       26.75    
        26.65       26.54       26.42       26.29       26.14       25.98       25.79       25.58       25.31       24.94    
   8    27.57       27.57       27.56       27.55       27.53       27.51       27.49       27.46       27.43       27.40    
        27.36       27.31       27.26       27.21       27.15       27.08       27.01       26.93       26.85       26.75    
        26.65       26.54       26.42       26.29       26.14       25.98       25.79       25.58       25.31       24.94    
   9    27.57       27.57       27.56       27.55       27.53       27.51       27.49       27.46       27.43       27.40    
        27.36       27.31       27.26       27.21       27.15       27.08       27.01       26.93       26.85       26.75    
        26.65       26.54       26.42       26.29       26.14       25.98       25.79       25.58       25.31       24.94    
  10    27.57       27.57       27.56       27.55       27.53       27.51       27.49       27.46       27.43       27.40    
        27.36       27.31       27.26       27.21       27.15       27.08       27.01       26.93       26.85       26.75    
        26.65       26.54       26.42       26.29       26.14       25.98       25.79       25.58       25.31       24.94    
  11    27.57       27.57       27.56       27.55       27.53       27.51       27.49       27.46       27.43       27.40    
        27.36       27.31       27.26       27.21       27.15       27.08       27.01       26.93       26.85       26.75    
        26.65       26.54       26.42       26.29       26.14       25.98       25.79       25.58       25.31       24.94    
  12    27.57       27.57       27.56       27.55       27.53       27.51       27.49       27.46       27.43       27.40    
        27.36       27.31       27.26       27.21       27.15       27.08       27.01       26.93       26.85       26.75    
        26.65       26.54       26.42       26.29       26.14       25.98       25.79       25.58       25.31       24.94    
  13    27.57       27.57       27.56       27.55       27.53       27.51       27.49       27.46       27.43       27.40    
        27.36       27.31       27.26       27.21       27.15       27.08       27.01       26.93       26.85       26.75    
        26.65       26.54       26.42       26.29       26.14       25.98       25.79       25.58       25.31       24.94    
  14    27.57       27.57       27.56       27.55       27.53       27.51       27.49       27.46       27.43       27.40    
        27.36       27.31       27.26       27.21       27.15       27.08       27.01       26.93       26.85       26.75    
        26.65       26.54       26.42       26.29       26.14       25.98       25.79       25.58       25.31       24.94    
  15    27.57       27.57       27.56       27.55       27.53       27.51       27.49       27.46       27.43       27.40    
        27.36       27.31       27.26       27.21       27.15       27.08       27.01       26.93       26.85       26.75    
        26.65       26.54       26.42       26.29       26.14       25.98       25.79       25.58       25.31       24.94    
  16    27.57       27.57       27.56       27.55       27.53       27.51       27.49       27.46       27.43       27.40    
        27.36       27.31       27.26       27.21       27.15       27.08       27.01       26.93       26.85       26.75    
        26.65       26.54       26.42       26.29       26.14       25.98       25.79       25.58       25.31       24.94    
  17    27.57       27.57       27.56       27.55       27.53       27.51       27.49       27.46       27.43       27.40    
        27.36       27.31       27.26       27.21       27.15       27.08       27.01       26.93       26.85       26.75    
        26.65       26.54       26.42       26.29       26.14       25.98       25.79       25.58       25.31       24.94    
  18    27.57       27.57       27.56       27.55       27.53       27.51       27.49       27.46       27.43       27.40    
        27.36       27.31       27.26       27.21       27.15       27.08       27.01       26.93       26.85       26.75    
        26.65       26.54       26.42       26.29       26.14       25.98       25.79       25.58       25.31       24.94    
  19    27.57       27.57       27.56       27.55       27.53       27.51       27.49       27.46       27.43       27.40    
        27.36       27.31       27.26       27.21       27.15       27.08       27.01       26.93       26.85       26.75    
        26.65       26.54       26.42       26.29       26.14       25.98       25.79       25.58       25.31       24.94    
  20    27.57       27.57       27.56       27.55       27.53       27.51       27.49       27.46       27.43       27.40    
        27.36       27.31       27.26       27.21       27.15       27.08       27.01       26.93       26.85       26.75    
        26.65       26.54       26.42       26.29       26.14       25.98       25.79       25.58       25.31       24.94    
  21    27.57       27.57       27.56       27.55       27.53       27.51       27.49       27.46       27.43       27.40    
        27.36       27.31       27.26       27.21       27.15       27.08       27.01       26.93       26.85       26.75    
        26.65       26.54       26.42       26.29       26.14       25.98       25.79       25.58       25.31       24.94    
  22    27.57       27.57       27.56       27.55       27.53       27.51       27.49       27.46       27.43       27.40    
        27.36       27.31       27.26       27.21       27.15       27.08       27.01       26.93       26.85       26.75    
        26.65       26.54       26.42       26.29       26.14       25.98       25.79       25.58       25.31       24.94    
  23    27.57       27.57       27.56       27.55       27.53       27.51       27.49       27.46       27.43       27.40    
        27.36       27.31       27.26       27.21       27.15       27.08       27.01       26.93       26.85       26.75    
        26.65       26.54       26.42       26.29       26.14       25.98       25.79       25.58       25.31       24.94    
  24    27.57       27.57       27.56       27.55       27.53       27.51       27.49       27.46       27.43       27.40    
        27.36       27.31       27.26       27.21       27.15       27.08       27.01       26.93       26.85       26.75    
        26.65       26.54       26.42       26.29       26.14       25.98       25.79       25.58       25.31       24.94    
  25    27.57       27.57       27.56       27.55       27.53       27.51       27.49       27.46       27.43       27.40    
        27.36       27.31       27.26       27.21       27.15       27.08       27.01       26.93       26.85       26.75    
        26.65       26.54       26.42       26.29       26.14       25.98       25.79       25.58       25.31       24.94    
  26    27.57       27.57       27.56       27.55       27.53       27.51       27.49       27.46       27.43       27.40    
        27.36       27.31       27.26       27.21       27.15       27.08       27.01       26.93       26.85       26.75    
        26.65       26.54       26.42       26.29       26.14       25.98       25.79       25.58       25.31       24.94    
  27    27.57       27.57       27.56       27.55       27.53       27.51       27.49       27.46       27.43       27.40    
        27.36       27.31       27.26       27.21       27.15       27.08       27.01       26.93       26.85       26.75    
        26.65       26.54       26.42       26.29       26.14       25.98       25.79       25.58       25.31       24.94    
  28    27.57       27.57       27.56       27.55       27.53       27.51       27.49       27.46       27.43       27.40    
        27.36       27.31       27.26       27.21       27.15       27.08       27.01       26.93       26.85       26.75    
        26.65       26.54       26.42       26.29       26.14       25.98       25.79       25.58       25.31       24.94    
  29    27.57       27.57       27.56       27.55       27.53       27.51       27.49       27.46       27.43       27.40    
        27.36       27.31       27.26       27.21       27.15       27.08       27.01       26.93       26.85       26.75    
        26.65       26.54       26.42       26.29       26.14       25.98       25.79       25.58       25.31       24.94    
  30    27.57       27.57       27.56       27.55       27.53       27.51       27.49       27.46       27.43       27.40    
        27.36       27.31       27.26       27.21       27.15       27.08       27.01       26.93       26.85       26.75    
        26.65       26.54       26.42       26.29       26.14       25.98       25.79       25.58       25.31       24.94    

 HEAD WILL BE SAVED ON UNIT 1017 AT END OF TIME STEP    1, STRESS PERIOD   33



         TIME SUMMARY AT END OF TIME STEP    1 IN STRESS PERIOD   33
                    SECONDS     MINUTES      HOURS       DAYS        YEARS
                    -----------------------------------------------------------
   TIME STEP LENGTH 2.59200E+05  4320.0      72.000      3.0000     8.21355E-03
 STRESS PERIOD TIME 2.59200E+05  4320.0      72.000      3.0000     8.21355E-03
         TOTAL TIME 8.06976E+07 1.34496E+06  22416.      934.00      2.5572    
 UBDSV1 SAVING           STO-SS ON UNIT   1016 AT TIME STEP      2, STRESS PERIOD     33
 UBDSV1 SAVING           STO-SY ON UNIT   1016 AT TIME STEP      2, STRESS PERIOD     33
 UBDSV1 SAVING     FLOW-JA-FACE ON UNIT   1016 AT TIME STEP      2, STRESS PERIOD     33
 UBDSV06 SAVING              RCH IN MODEL TEST_TRANS       PACKAGE TEST_TRANS      CONNECTED TO MODEL TEST_TRANS       PACKAGE RCHA             ON UNIT   1016 AT TIME STEP      2, STRESS PERIOD     33
 UBDSV06 SAVING              CHD IN MODEL TEST_TRANS       PACKAGE TEST_TRANS      CONNECTED TO MODEL TEST_TRANS       PACKAGE CHD              ON UNIT   1016 AT TIME STEP      2, STRESS PERIOD     33

 HEAD WILL BE SAVED ON UNIT 1017 AT END OF TIME STEP    2, STRESS PERIOD   33
 UBDSV1 SAVING           STO-SS ON UNIT   1016 AT TIME STEP      3, STRESS PERIOD     33
 UBDSV1 SAVING           STO-SY ON UNIT   1016 AT TIME STEP      3, STRESS PERIOD     33
 UBDSV1 SAVING     FLOW-JA-FACE ON UNIT   1016 AT TIME STEP      3, STRESS PERIOD     33
 UBDSV06 SAVING              RCH IN MODEL TEST_TRANS       PACKAGE TEST_TRANS      CONNECTED TO MODEL TEST_TRANS       PACKAGE RCHA             ON UNIT   1016 AT TIME STEP      3, STRESS PERIOD     33
 UBDSV06 SAVING              CHD IN MODEL TEST_TRANS       PACKAGE TEST_TRANS      CONNECTED TO MODEL TEST_TRANS       PACKAGE CHD              ON UNIT   1016 AT TIME STEP      3, STRESS PERIOD     33

 HEAD WILL BE SAVED ON UNIT 1017 AT END OF TIME STEP    3, STRESS PERIOD   33
 UBDSV1 SAVING           STO-SS ON UNIT   1016 AT TIME STEP      4, STRESS PERIOD     33
 UBDSV1 SAVING           STO-SY ON UNIT   1016 AT TIME STEP      4, STRESS PERIOD     33
 UBDSV1 SAVING     FLOW-JA-FACE ON UNIT   1016 AT TIME STEP      4, STRESS PERIOD     33
 UBDSV06 SAVING              RCH IN MODEL TEST_TRANS       PACKAGE TEST_TRANS      CONNECTED TO MODEL TEST_TRANS       PACKAGE RCHA             ON UNIT   1016 AT TIME STEP      4, STRESS PERIOD     33
 UBDSV06 SAVING              CHD IN MODEL TEST_TRANS       PACKAGE TEST_TRANS      CONNECTED TO MODEL TEST_TRANS       PACKAGE CHD              ON UNIT   1016 AT TIME STEP      4, STRESS PERIOD     33

 HEAD WILL BE SAVED ON UNIT 1017 AT END OF TIME STEP    4, STRESS PERIOD   33
 UBDSV1 SAVING           STO-SS ON UNIT   1016 AT TIME STEP      5, STRESS PERIOD     33
 UBDSV1 SAVING           STO-SY ON UNIT   1016 AT TIME STEP      5, STRESS PERIOD     33
 UBDSV1 SAVING     FLOW-JA-FACE ON UNIT   1016 AT TIME STEP      5, STRESS PERIOD     33
 UBDSV06 SAVING              RCH IN MODEL TEST_TRANS       PACKAGE TEST_TRANS      CONNECTED TO MODEL TEST_TRANS       PACKAGE RCHA             ON UNIT   1016 AT TIME STEP      5, STRESS PERIOD     33
 UBDSV06 SAVING              CHD IN MODEL TEST_TRANS       PACKAGE TEST_TRANS      CONNECTED TO MODEL TEST_TRANS       PACKAGE CHD              ON UNIT   1016 AT TIME STEP      5, STRESS PERIOD     33

 HEAD WILL BE SAVED ON UNIT 1017 AT END OF TIME STEP    5, STRESS PERIOD   33
 UBDSV1 SAVING           STO-SS ON UNIT   1016 AT TIME STEP      6, STRESS PERIOD     33
 UBDSV1 SAVING           STO-SY ON UNIT   1016 AT TIME STEP      6, STRESS PERIOD     33
 UBDSV1 SAVING     FLOW-JA-FACE ON UNIT   1016 AT TIME STEP      6, STRESS PERIOD     33
 UBDSV06 SAVING              RCH IN MODEL TEST_TRANS       PACKAGE TEST_TRANS      CONNECTED TO MODEL TEST_TRANS       PACKAGE RCHA             ON UNIT   1016 AT TIME STEP      6, STRESS PERIOD     33
 UBDSV06 SAVING              CHD IN MODEL TEST_TRANS       PACKAGE TEST_TRANS      CONNECTED TO MODEL TEST_TRANS       PACKAGE CHD              ON UNIT   1016 AT TIME STEP      6, STRESS PERIOD     33

 HEAD WILL BE SAVED ON UNIT 1017 AT END OF TIME STEP    6, STRESS PERIOD   33
 UBDSV1 SAVING           STO-SS ON UNIT   1016 AT TIME STEP      7, STRESS PERIOD     33
 UBDSV1 SAVING           STO-SY ON UNIT   1016 AT TIME STEP      7, STRESS PERIOD     33
 UBDSV1 SAVING     FLOW-JA-FACE ON UNIT   1016 AT TIME STEP      7, STRESS PERIOD     33
 UBDSV06 SAVING              RCH IN MODEL TEST_TRANS       PACKAGE TEST_TRANS      CONNECTED TO MODEL TEST_TRANS       PACKAGE RCHA             ON UNIT   1016 AT TIME STEP      7, STRESS PERIOD     33
 UBDSV06 SAVING              CHD IN MODEL TEST_TRANS       PACKAGE TEST_TRANS      CONNECTED TO MODEL TEST_TRANS       PACKAGE CHD              ON UNIT   1016 AT TIME STEP      7, STRESS PERIOD     33

 HEAD WILL BE SAVED ON UNIT 1017 AT END OF TIME STEP    7, STRESS PERIOD   33
 UBDSV1 SAVING           STO-SS ON UNIT   1016 AT TIME STEP      8, STRESS PERIOD     33
 UBDSV1 SAVING           STO-SY ON UNIT   1016 AT TIME STEP      8, STRESS PERIOD     33
 UBDSV1 SAVING     FLOW-JA-FACE ON UNIT   1016 AT TIME STEP      8, STRESS PERIOD     33
 UBDSV06 SAVING              RCH IN MODEL TEST_TRANS       PACKAGE TEST_TRANS      CONNECTED TO MODEL TEST_TRANS       PACKAGE RCHA             ON UNIT   1016 AT TIME STEP      8, STRESS PERIOD     33
 UBDSV06 SAVING              CHD IN MODEL TEST_TRANS       PACKAGE TEST_TRANS      CONNECTED TO MODEL TEST_TRANS       PACKAGE CHD              ON UNIT   1016 AT TIME STEP      8, STRESS PERIOD     33

 HEAD WILL BE SAVED ON UNIT 1017 AT END OF TIME STEP    8, STRESS PERIOD   33
 UBDSV1 SAVING           STO-SS ON UNIT   1016 AT TIME STEP      9, STRESS PERIOD     33
 UBDSV1 SAVING           STO-SY ON UNIT   1016 AT TIME STEP      9, STRESS PERIOD     33
 UBDSV1 SAVING     FLOW-JA-FACE ON UNIT   1016 AT TIME STEP      9, STRESS PERIOD     33
 UBDSV06 SAVING              RCH IN MODEL TEST_TRANS       PACKAGE TEST_TRANS      CONNECTED TO MODEL TEST_TRANS       PACKAGE RCHA             ON UNIT   1016 AT TIME STEP      9, STRESS PERIOD     33
 UBDSV06 SAVING              CHD IN MODEL TEST_TRANS       PACKAGE TEST_TRANS      CONNECTED TO MODEL TEST_TRANS       PACKAGE CHD              ON UNIT   1016 AT TIME STEP      9, STRESS PERIOD     33

 HEAD WILL BE SAVED ON UNIT 1017 AT END OF TIME STEP    9, STRESS PERIOD   33
 UBDSV1 SAVING           STO-SS ON UNIT   1016 AT TIME STEP     10, STRESS PERIOD     33
 UBDSV1 SAVING           STO-SY ON UNIT   1016 AT TIME STEP     10, STRESS PERIOD     33
 UBDSV1 SAVING     FLOW-JA-FACE ON UNIT   1016 AT TIME STEP     10, STRESS PERIOD     33
 UBDSV06 SAVING              RCH IN MODEL TEST_TRANS       PACKAGE TEST_TRANS      CONNECTED TO MODEL TEST_TRANS       PACKAGE RCHA             ON UNIT   1016 AT TIME STEP     10, STRESS PERIOD     33
 UBDSV06 SAVING              CHD IN MODEL TEST_TRANS       PACKAGE TEST_TRANS      CONNECTED TO MODEL TEST_TRANS       PACKAGE CHD              ON UNIT   1016 AT TIME STEP     10, STRESS PERIOD     33
1
  HEAD IN LAYER   1 AT END OF TIME STEP  10 IN STRESS PERIOD   33
  ---------------------------------------------------------------------------

            1           2           3           4           5           6           7           8           9          10
           11          12          13          14          15          16          17          18          19          20
           21          22          23          24          25          26          27          28          29          30
 ........................................................................................................................
   1    27.58       27.58       27.57       27.56       27.54       27.52       27.50       27.47       27.44       27.40    
        27.36       27.31       27.25       27.20       27.13       27.06       26.98       26.90       26.81       26.71    
        26.60       26.48       26.35       26.21       26.05       25.88       25.69       25.48       25.23       24.94    
   2    27.58       27.58       27.57       27.56       27.54       27.52       27.50       27.47       27.44       27.40    
        27.36       27.31       27.25       27.20       27.13       27.06       26.98       26.90       26.81       26.71    
        26.60       26.48       26.35       26.21       26.05       25.88       25.69       25.48       25.23       24.94    
   3    27.58       27.58       27.57       27.56       27.54       27.52       27.50       27.47       27.44       27.40    
        27.36       27.31       27.25       27.20       27.13       27.06       26.98       26.90       26.81       26.71    
        26.60       26.48       26.35       26.21       26.05       25.88       25.69       25.48       25.23       24.94    
   4    27.58       27.58       27.57       27.56       27.54       27.52       27.50       27.47       27.44       27.40    
        27.36       27.31       27.25       27.20       27.13       27.06       26.98       26.90       26.81       26.71    
        26.60       26.48       26.35       26.21       26.05       25.88       25.69       25.48       25.23       24.94    
   5    27.58       27.58       27.57       27.56       27.54       27.52       27.50       27.47       27.44       27.40    
        27.36       27.31       27.25       27.20       27.13       27.06       26.98       26.90       26.81       26.71    
        26.60       26.48       26.35       26.21       26.05       25.88       25.69       25.48       25.23       24.94    
   6    27.58       27.58       27.57       27.56       27.54       27.52       27.50       27.47       27.44       27.40    
        27.36       27.31       27.25       27.20       27.13       27.06       26.98       26.90       26.81       26.71    
        26.60       26.48       26.35       26.21       26.05       25.88       25.69       25.48       25.23       24.94    
   7    27.58       27.58       27.57       27.56       27.54       27.52       27.50       27.47       27.44       27.40    
        27.36       27.31       27.25       27.20       27.13       27.06       26.98       26.90       26.81       26.71    
        26.60       26.48       26.35       26.21       26.05       25.88       25.69       25.48       25.23       24.94    
   8    27.58       27.58       27.57       27.56       27.54       27.52       27.50       27.47       27.44       27.40    
        27.36       27.31       27.25       27.20       27.13       27.06       26.98       26.90       26.81       26.71    
        26.60       26.48       26.35       26.21       26.05       25.88       25.69       25.48       25.23       24.94    
   9    27.58       27.58       27.57       27.56       27.54       27.52       27.50       27.47       27.44       27.40    
        27.36       27.31       27.25       27.20       27.13       27.06       26.98       26.90       26.81       26.71    
        26.60       26.48       26.35       26.21       26.05       25.88       25.69       25.48       25.23       24.94    
  10    27.58       27.58       27.57       27.56       27.54       27.52       27.50       27.47       27.44       27.40    
        27.36       27.31       27.25       27.20       27.13       27.06       26.98       26.90       26.81       26.71    
        26.60       26.48       26.35       26.21       26.05       25.88       25.69       25.48       25.23       24.94    
  11    27.58       27.58       27.57       27.56       27.54       27.52       27.50       27.47       27.44       27.40    
        27.36       27.31       27.25       27.20       27.13       27.06       26.98       26.90       26.81       26.71    
        26.60       26.48       26.35       26.21       26.05       25.88       25.69       25.48       25.23       24.94    
  12    27.58       27.58       27.57       27.56       27.54       27.52       27.50       27.47       27.44       27.40    
        27.36       27.31       27.25       27.20       27.13       27.06       26.98       26.90       26.81       26.71    
        26.60       26.48       26.35       26.21       26.05       25.88       25.69       25.48       25.23       24.94    
  13    27.58       27.58       27.57       27.56       27.54       27.52       27.50       27.47       27.44       27.40    
        27.36       27.31       27.25       27.20       27.13       27.06       26.98       26.90       26.81       26.71    
        26.60       26.48       26.35       26.21       26.05       25.88       25.69       25.48       25.23       24.94    
  14    27.58       27.58       27.57       27.56       27.54       27.52       27.50       27.47       27.44       27.40    
        27.36       27.31       27.25       27.20       27.13       27.06       26.98       26.90       26.81       26.71    
        26.60       26.48       26.35       26.21       26.05       25.88       25.69       25.48       25.23       24.94    
  15    27.58       27.58       27.57       27.56       27.54       27.52       27.50       27.47       27.44       27.40    
        27.36       27.31       27.25       27.20       27.13       27.06       26.98       26.90       26.81       26.71    
        26.60       26.48       26.35       26.21       26.05       25.88       25.69       25.48       25.23       24.94    
  16    27.58       27.58       27.57       27.56       27.54       27.52       27.50       27.47       27.44       27.40    
        27.36       27.31       27.25       27.20       27.13       27.06       26.98       26.90       26.81       26.71    
        26.60       26.48       26.35       26.21       26.05       25.88       25.69       25.48       25.23       24.94    
  17    27.58       27.58       27.57       27.56       27.54       27.52       27.50       27.47       27.44       27.40    
        27.36       27.31       27.25       27.20       27.13       27.06       26.98       26.90       26.81       26.71    
        26.60       26.48       26.35       26.21       26.05       25.88       25.69       25.48       25.23       24.94    
  18    27.58       27.58       27.57       27.56       27.54       27.52       27.50       27.47       27.44       27.40    
        27.36       27.31       27.25       27.20       27.13       27.06       26.98       26.90       26.81       26.71    
        26.60       26.48       26.35       26.21       26.05       25.88       25.69       25.48       25.23       24.94    
  19    27.58       27.58       27.57       27.56       27.54       27.52       27.50       27.47       27.44       27.40    
        27.36       27.31       27.25       27.20       27.13       27.06       26.98       26.90       26.81       26.71    
        26.60       26.48       26.35       26.21       26.05       25.88       25.69       25.48       25.23       24.94    
  20    27.58       27.58       27.57       27.56       27.54       27.52       27.50       27.47       27.44       27.40    
        27.36       27.31       27.25       27.20       27.13       27.06       26.98       26.90       26.81       26.71    
        26.60       26.48       26.35       26.21       26.05       25.88       25.69       25.48       25.23       24.94    
  21    27.58       27.58       27.57       27.56       27.54       27.52       27.50       27.47       27.44       27.40    
        27.36       27.31       27.25       27.20       27.13       27.06       26.98       26.90       26.81       26.71    
        26.60       26.48       26.35       26.21       26.05       25.88       25.69       25.48       25.23       24.94    
  22    27.58       27.58       27.57       27.56       27.54       27.52       27.50       27.47       27.44       27.40    
        27.36       27.31       27.25       27.20       27.13       27.06       26.98       26.90       26.81       26.71    
        26.60       26.48       26.35       26.21       26.05       25.88       25.69       25.48       25.23       24.94    
  23    27.58       27.58       27.57       27.56       27.54       27.52       27.50       27.47       27.44       27.40    
        27.36       27.31       27.25       27.20       27.13       27.06       26.98       26.90       26.81       26.71    
        26.60       26.48       26.35       26.21       26.05       25.88       25.69       25.48       25.23       24.94    
  24    27.58       27.58       27.57       27.56       27.54       27.52       27.50       27.47       27.44       27.40    
        27.36       27.31       27.25       27.20       27.13       27.06       26.98       26.90       26.81       26.71    
        26.60       26.48       26.35       26.21       26.05       25.88       25.69       25.48       25.23       24.94    
  25    27.58       27.58       27.57       27.56       27.54       27.52       27.50       27.47       27.44       27.40    
        27.36       27.31       27.25       27.20       27.13       27.06       26.98       26.90       26.81       26.71    
        26.60       26.48       26.35       26.21       26.05       25.88       25.69       25.48       25.23       24.94    
  26    27.58       27.58       27.57       27.56       27.54       27.52       27.50       27.47       27.44       27.40    
        27.36       27.31       27.25       27.20       27.13       27.06       26.98       26.90       26.81       26.71    
        26.60       26.48       26.35       26.21       26.05       25.88       25.69       25.48       25.23       24.94    
  27    27.58       27.58       27.57       27.56       27.54       27.52       27.50       27.47       27.44       27.40    
        27.36       27.31       27.25       27.20       27.13       27.06       26.98       26.90       26.81       26.71    
        26.60       26.48       26.35       26.21       26.05       25.88       25.69       25.48       25.23       24.94    
  28    27.58       27.58       27.57       27.56       27.54       27.52       27.50       27.47       27.44       27.40    
        27.36       27.31       27.25       27.20       27.13       27.06       26.98       26.90       26.81       26.71    
        26.60       26.48       26.35       26.21       26.05       25.88       25.69       25.48       25.23       24.94    
  29    27.58       27.58       27.57       27.56       27.54       27.52       27.50       27.47       27.44       27.40    
        27.36       27.31       27.25       27.20       27.13       27.06       26.98       26.90       26.81       26.71    
        26.60       26.48       26.35       26.21       26.05       25.88       25.69       25.48       25.23       24.94    
  30    27.58       27.58       27.57       27.56       27.54       27.52       27.50       27.47       27.44       27.40    
        27.36       27.31       27.25       27.20       27.13       27.06       26.98       26.90       26.81       26.71    
        26.60       26.48       26.35       26.21       26.05       25.88       25.69       25.48       25.23       24.94    

 HEAD WILL BE SAVED ON UNIT 1017 AT END OF TIME STEP   10, STRESS PERIOD   33


  VOLUME BUDGET FOR ENTIRE MODEL AT END OF TIME STEP   10, STRESS PERIOD  33
  ---------------------------------------------------------------------------------------------------

     CUMULATIVE VOLUME      L**3       RATES FOR THIS TIME STEP      L**3/T          PACKAGE NAME    
     ------------------                 ------------------------                     ----------------

           IN:                                      IN:
           ---                                      ---
              STO-SS =          58.5319                STO-SS =       1.8255E-02     STORAGE         
              STO-SY =       37754.7524                STO-SY =          12.1897     STORAGE         
                 RCH =      152905.5538                   RCH =         143.0141     RCHA            
                 CHD =        3520.9028                   CHD =           0.0000     CHD             

            TOTAL IN =      194239.7408              TOTAL IN =         155.2220

          OUT:                                     OUT:
          ----                                     ----
              STO-SS =          43.6233                STO-SS =       1.2303E-03     STORAGE         
              STO-SY =       28529.1341                STO-SY =           0.7659     STORAGE         
                 RCH =           0.0000                   RCH =           0.0000     RCHA            
                 CHD =      165666.1874                   CHD =         154.4523     CHD             

           TOTAL OUT =      194238.9448             TOTAL OUT =         155.2194

            IN - OUT =           0.7960              IN - OUT =       2.5426E-03

 PERCENT DISCREPANCY =           0.00     PERCENT DISCREPANCY =           0.00




         TIME SUMMARY AT END OF TIME STEP   10 IN STRESS PERIOD   33
                    SECONDS     MINUTES      HOURS       DAYS        YEARS
                    -----------------------------------------------------------
   TIME STEP LENGTH 2.59200E+05  4320.0      72.000      3.0000     8.21355E-03
 STRESS PERIOD TIME 2.59200E+06  43200.      720.00      30.000     8.21355E-02
         TOTAL TIME 8.30304E+07 1.38384E+06  23064.      961.00      2.6311    

 OUTPUT CONTROL FOR STRESS PERIOD 34 IS REPEATED USING SETTINGS FROM A PREVIOUS STRESS PERIOD.


 STRESS PERIOD 34 IS TRANSIENT


                 RECHARGE =  0.2191780E-02
 UBDSV1 SAVING           STO-SS ON UNIT   1016 AT TIME STEP      1, STRESS PERIOD     34
 UBDSV1 SAVING           STO-SY ON UNIT   1016 AT TIME STEP      1, STRESS PERIOD     34
 UBDSV1 SAVING     FLOW-JA-FACE ON UNIT   1016 AT TIME STEP      1, STRESS PERIOD     34
 UBDSV06 SAVING              RCH IN MODEL TEST_TRANS       PACKAGE TEST_TRANS      CONNECTED TO MODEL TEST_TRANS       PACKAGE RCHA             ON UNIT   1016 AT TIME STEP      1, STRESS PERIOD     34
 UBDSV06 SAVING              CHD IN MODEL TEST_TRANS       PACKAGE TEST_TRANS      CONNECTED TO MODEL TEST_TRANS       PACKAGE CHD              ON UNIT   1016 AT TIME STEP      1, STRESS PERIOD     34
1
  HEAD IN LAYER   1 AT END OF TIME STEP   1 IN STRESS PERIOD   34
  ---------------------------------------------------------------------------

            1           2           3           4           5           6           7           8           9          10
           11          12          13          14          15          16          17          18          19          20
           21          22          23          24          25          26          27          28          29          30
 ........................................................................................................................
   1    27.59       27.59       27.58       27.57       27.55       27.53       27.51       27.48       27.44       27.41    
        27.36       27.31       27.26       27.20       27.14       27.07       26.99       26.90       26.81       26.71    
        26.60       26.48       26.35       26.20       26.04       25.85       25.63       25.35       24.98       24.34    
   2    27.59       27.59       27.58       27.57       27.55       27.53       27.51       27.48       27.44       27.41    
        27.36       27.31       27.26       27.20       27.14       27.07       26.99       26.90       26.81       26.71    
        26.60       26.48       26.35       26.20       26.04       25.85       25.63       25.35       24.98       24.34    
   3    27.59       27.59       27.58       27.57       27.55       27.53       27.51       27.48       27.44       27.41    
        27.36       27.31       27.26       27.20       27.14       27.07       26.99       26.90       26.81       26.71    
        26.60       26.48       26.35       26.20       26.04       25.85       25.63       25.35       24.98       24.34    
   4    27.59       27.59       27.58       27.57       27.55       27.53       27.51       27.48       27.44       27.41    
        27.36       27.31       27.26       27.20       27.14       27.07       26.99       26.90       26.81       26.71    
        26.60       26.48       26.35       26.20       26.04       25.85       25.63       25.35       24.98       24.34    
   5    27.59       27.59       27.58       27.57       27.55       27.53       27.51       27.48       27.44       27.41    
        27.36       27.31       27.26       27.20       27.14       27.07       26.99       26.90       26.81       26.71    
        26.60       26.48       26.35       26.20       26.04       25.85       25.63       25.35       24.98       24.34    
   6    27.59       27.59       27.58       27.57       27.55       27.53       27.51       27.48       27.44       27.41    
        27.36       27.31       27.26       27.20       27.14       27.07       26.99       26.90       26.81       26.71    
        26.60       26.48       26.35       26.20       26.04       25.85       25.63       25.35       24.98       24.34    
   7    27.59       27.59       27.58       27.57       27.55       27.53       27.51       27.48       27.44       27.41    
        27.36       27.31       27.26       27.20       27.14       27.07       26.99       26.90       26.81       26.71    
        26.60       26.48       26.35       26.20       26.04       25.85       25.63       25.35       24.98       24.34    
   8    27.59       27.59       27.58       27.57       27.55       27.53       27.51       27.48       27.44       27.41    
        27.36       27.31       27.26       27.20       27.14       27.07       26.99       26.90       26.81       26.71    
        26.60       26.48       26.35       26.20       26.04       25.85       25.63       25.35       24.98       24.34    
   9    27.59       27.59       27.58       27.57       27.55       27.53       27.51       27.48       27.44       27.41    
        27.36       27.31       27.26       27.20       27.14       27.07       26.99       26.90       26.81       26.71    
        26.60       26.48       26.35       26.20       26.04       25.85       25.63       25.35       24.98       24.34    
  10    27.59       27.59       27.58       27.57       27.55       27.53       27.51       27.48       27.44       27.41    
        27.36       27.31       27.26       27.20       27.14       27.07       26.99       26.90       26.81       26.71    
        26.60       26.48       26.35       26.20       26.04       25.85       25.63       25.35       24.98       24.34    
  11    27.59       27.59       27.58       27.57       27.55       27.53       27.51       27.48       27.44       27.41    
        27.36       27.31       27.26       27.20       27.14       27.07       26.99       26.90       26.81       26.71    
        26.60       26.48       26.35       26.20       26.04       25.85       25.63       25.35       24.98       24.34    
  12    27.59       27.59       27.58       27.57       27.55       27.53       27.51       27.48       27.44       27.41    
        27.36       27.31       27.26       27.20       27.14       27.07       26.99       26.90       26.81       26.71    
        26.60       26.48       26.35       26.20       26.04       25.85       25.63       25.35       24.98       24.34    
  13    27.59       27.59       27.58       27.57       27.55       27.53       27.51       27.48       27.44       27.41    
        27.36       27.31       27.26       27.20       27.14       27.07       26.99       26.90       26.81       26.71    
        26.60       26.48       26.35       26.20       26.04       25.85       25.63       25.35       24.98       24.34    
  14    27.59       27.59       27.58       27.57       27.55       27.53       27.51       27.48       27.44       27.41    
        27.36       27.31       27.26       27.20       27.14       27.07       26.99       26.90       26.81       26.71    
        26.60       26.48       26.35       26.20       26.04       25.85       25.63       25.35       24.98       24.34    
  15    27.59       27.59       27.58       27.57       27.55       27.53       27.51       27.48       27.44       27.41    
        27.36       27.31       27.26       27.20       27.14       27.07       26.99       26.90       26.81       26.71    
        26.60       26.48       26.35       26.20       26.04       25.85       25.63       25.35       24.98       24.34    
  16    27.59       27.59       27.58       27.57       27.55       27.53       27.51       27.48       27.44       27.41    
        27.36       27.31       27.26       27.20       27.14       27.07       26.99       26.90       26.81       26.71    
        26.60       26.48       26.35       26.20       26.04       25.85       25.63       25.35       24.98       24.34    
  17    27.59       27.59       27.58       27.57       27.55       27.53       27.51       27.48       27.44       27.41    
        27.36       27.31       27.26       27.20       27.14       27.07       26.99       26.90       26.81       26.71    
        26.60       26.48       26.35       26.20       26.04       25.85       25.63       25.35       24.98       24.34    
  18    27.59       27.59       27.58       27.57       27.55       27.53       27.51       27.48       27.44       27.41    
        27.36       27.31       27.26       27.20       27.14       27.07       26.99       26.90       26.81       26.71    
        26.60       26.48       26.35       26.20       26.04       25.85       25.63       25.35       24.98       24.34    
  19    27.59       27.59       27.58       27.57       27.55       27.53       27.51       27.48       27.44       27.41    
        27.36       27.31       27.26       27.20       27.14       27.07       26.99       26.90       26.81       26.71    
        26.60       26.48       26.35       26.20       26.04       25.85       25.63       25.35       24.98       24.34    
  20    27.59       27.59       27.58       27.57       27.55       27.53       27.51       27.48       27.44       27.41    
        27.36       27.31       27.26       27.20       27.14       27.07       26.99       26.90       26.81       26.71    
        26.60       26.48       26.35       26.20       26.04       25.85       25.63       25.35       24.98       24.34    
  21    27.59       27.59       27.58       27.57       27.55       27.53       27.51       27.48       27.44       27.41    
        27.36       27.31       27.26       27.20       27.14       27.07       26.99       26.90       26.81       26.71    
        26.60       26.48       26.35       26.20       26.04       25.85       25.63       25.35       24.98       24.34    
  22    27.59       27.59       27.58       27.57       27.55       27.53       27.51       27.48       27.44       27.41    
        27.36       27.31       27.26       27.20       27.14       27.07       26.99       26.90       26.81       26.71    
        26.60       26.48       26.35       26.20       26.04       25.85       25.63       25.35       24.98       24.34    
  23    27.59       27.59       27.58       27.57       27.55       27.53       27.51       27.48       27.44       27.41    
        27.36       27.31       27.26       27.20       27.14       27.07       26.99       26.90       26.81       26.71    
        26.60       26.48       26.35       26.20       26.04       25.85       25.63       25.35       24.98       24.34    
  24    27.59       27.59       27.58       27.57       27.55       27.53       27.51       27.48       27.44       27.41    
        27.36       27.31       27.26       27.20       27.14       27.07       26.99       26.90       26.81       26.71    
        26.60       26.48       26.35       26.20       26.04       25.85       25.63       25.35       24.98       24.34    
  25    27.59       27.59       27.58       27.57       27.55       27.53       27.51       27.48       27.44       27.41    
        27.36       27.31       27.26       27.20       27.14       27.07       26.99       26.90       26.81       26.71    
        26.60       26.48       26.35       26.20       26.04       25.85       25.63       25.35       24.98       24.34    
  26    27.59       27.59       27.58       27.57       27.55       27.53       27.51       27.48       27.44       27.41    
        27.36       27.31       27.26       27.20       27.14       27.07       26.99       26.90       26.81       26.71    
        26.60       26.48       26.35       26.20       26.04       25.85       25.63       25.35       24.98       24.34    
  27    27.59       27.59       27.58       27.57       27.55       27.53       27.51       27.48       27.44       27.41    
        27.36       27.31       27.26       27.20       27.14       27.07       26.99       26.90       26.81       26.71    
        26.60       26.48       26.35       26.20       26.04       25.85       25.63       25.35       24.98       24.34    
  28    27.59       27.59       27.58       27.57       27.55       27.53       27.51       27.48       27.44       27.41    
        27.36       27.31       27.26       27.20       27.14       27.07       26.99       26.90       26.81       26.71    
        26.60       26.48       26.35       26.20       26.04       25.85       25.63       25.35       24.98       24.34    
  29    27.59       27.59       27.58       27.57       27.55       27.53       27.51       27.48       27.44       27.41    
        27.36       27.31       27.26       27.20       27.14       27.07       26.99       26.90       26.81       26.71    
        26.60       26.48       26.35       26.20       26.04       25.85       25.63       25.35       24.98       24.34    
  30    27.59       27.59       27.58       27.57       27.55       27.53       27.51       27.48       27.44       27.41    
        27.36       27.31       27.26       27.20       27.14       27.07       26.99       26.90       26.81       26.71    
        26.60       26.48       26.35       26.20       26.04       25.85       25.63       25.35       24.98       24.34    

 HEAD WILL BE SAVED ON UNIT 1017 AT END OF TIME STEP    1, STRESS PERIOD   34



         TIME SUMMARY AT END OF TIME STEP    1 IN STRESS PERIOD   34
                    SECONDS     MINUTES      HOURS       DAYS        YEARS
                    -----------------------------------------------------------
   TIME STEP LENGTH 2.59200E+05  4320.0      72.000      3.0000     8.21355E-03
 STRESS PERIOD TIME 2.59200E+05  4320.0      72.000      3.0000     8.21355E-03
         TOTAL TIME 8.32896E+07 1.38816E+06  23136.      964.00      2.6393    
 UBDSV1 SAVING           STO-SS ON UNIT   1016 AT TIME STEP      2, STRESS PERIOD     34
 UBDSV1 SAVING           STO-SY ON UNIT   1016 AT TIME STEP      2, STRESS PERIOD     34
 UBDSV1 SAVING     FLOW-JA-FACE ON UNIT   1016 AT TIME STEP      2, STRESS PERIOD     34
 UBDSV06 SAVING              RCH IN MODEL TEST_TRANS       PACKAGE TEST_TRANS      CONNECTED TO MODEL TEST_TRANS       PACKAGE RCHA             ON UNIT   1016 AT TIME STEP      2, STRESS PERIOD     34
 UBDSV06 SAVING              CHD IN MODEL TEST_TRANS       PACKAGE TEST_TRANS      CONNECTED TO MODEL TEST_TRANS       PACKAGE CHD              ON UNIT   1016 AT TIME STEP      2, STRESS PERIOD     34

 HEAD WILL BE SAVED ON UNIT 1017 AT END OF TIME STEP    2, STRESS PERIOD   34
 UBDSV1 SAVING           STO-SS ON UNIT   1016 AT TIME STEP      3, STRESS PERIOD     34
 UBDSV1 SAVING           STO-SY ON UNIT   1016 AT TIME STEP      3, STRESS PERIOD     34
 UBDSV1 SAVING     FLOW-JA-FACE ON UNIT   1016 AT TIME STEP      3, STRESS PERIOD     34
 UBDSV06 SAVING              RCH IN MODEL TEST_TRANS       PACKAGE TEST_TRANS      CONNECTED TO MODEL TEST_TRANS       PACKAGE RCHA             ON UNIT   1016 AT TIME STEP      3, STRESS PERIOD     34
 UBDSV06 SAVING              CHD IN MODEL TEST_TRANS       PACKAGE TEST_TRANS      CONNECTED TO MODEL TEST_TRANS       PACKAGE CHD              ON UNIT   1016 AT TIME STEP      3, STRESS PERIOD     34

 HEAD WILL BE SAVED ON UNIT 1017 AT END OF TIME STEP    3, STRESS PERIOD   34
 UBDSV1 SAVING           STO-SS ON UNIT   1016 AT TIME STEP      4, STRESS PERIOD     34
 UBDSV1 SAVING           STO-SY ON UNIT   1016 AT TIME STEP      4, STRESS PERIOD     34
 UBDSV1 SAVING     FLOW-JA-FACE ON UNIT   1016 AT TIME STEP      4, STRESS PERIOD     34
 UBDSV06 SAVING              RCH IN MODEL TEST_TRANS       PACKAGE TEST_TRANS      CONNECTED TO MODEL TEST_TRANS       PACKAGE RCHA             ON UNIT   1016 AT TIME STEP      4, STRESS PERIOD     34
 UBDSV06 SAVING              CHD IN MODEL TEST_TRANS       PACKAGE TEST_TRANS      CONNECTED TO MODEL TEST_TRANS       PACKAGE CHD              ON UNIT   1016 AT TIME STEP      4, STRESS PERIOD     34

 HEAD WILL BE SAVED ON UNIT 1017 AT END OF TIME STEP    4, STRESS PERIOD   34
 UBDSV1 SAVING           STO-SS ON UNIT   1016 AT TIME STEP      5, STRESS PERIOD     34
 UBDSV1 SAVING           STO-SY ON UNIT   1016 AT TIME STEP      5, STRESS PERIOD     34
 UBDSV1 SAVING     FLOW-JA-FACE ON UNIT   1016 AT TIME STEP      5, STRESS PERIOD     34
 UBDSV06 SAVING              RCH IN MODEL TEST_TRANS       PACKAGE TEST_TRANS      CONNECTED TO MODEL TEST_TRANS       PACKAGE RCHA             ON UNIT   1016 AT TIME STEP      5, STRESS PERIOD     34
 UBDSV06 SAVING              CHD IN MODEL TEST_TRANS       PACKAGE TEST_TRANS      CONNECTED TO MODEL TEST_TRANS       PACKAGE CHD              ON UNIT   1016 AT TIME STEP      5, STRESS PERIOD     34

 HEAD WILL BE SAVED ON UNIT 1017 AT END OF TIME STEP    5, STRESS PERIOD   34
 UBDSV1 SAVING           STO-SS ON UNIT   1016 AT TIME STEP      6, STRESS PERIOD     34
 UBDSV1 SAVING           STO-SY ON UNIT   1016 AT TIME STEP      6, STRESS PERIOD     34
 UBDSV1 SAVING     FLOW-JA-FACE ON UNIT   1016 AT TIME STEP      6, STRESS PERIOD     34
 UBDSV06 SAVING              RCH IN MODEL TEST_TRANS       PACKAGE TEST_TRANS      CONNECTED TO MODEL TEST_TRANS       PACKAGE RCHA             ON UNIT   1016 AT TIME STEP      6, STRESS PERIOD     34
 UBDSV06 SAVING              CHD IN MODEL TEST_TRANS       PACKAGE TEST_TRANS      CONNECTED TO MODEL TEST_TRANS       PACKAGE CHD              ON UNIT   1016 AT TIME STEP      6, STRESS PERIOD     34

 HEAD WILL BE SAVED ON UNIT 1017 AT END OF TIME STEP    6, STRESS PERIOD   34
 UBDSV1 SAVING           STO-SS ON UNIT   1016 AT TIME STEP      7, STRESS PERIOD     34
 UBDSV1 SAVING           STO-SY ON UNIT   1016 AT TIME STEP      7, STRESS PERIOD     34
 UBDSV1 SAVING     FLOW-JA-FACE ON UNIT   1016 AT TIME STEP      7, STRESS PERIOD     34
 UBDSV06 SAVING              RCH IN MODEL TEST_TRANS       PACKAGE TEST_TRANS      CONNECTED TO MODEL TEST_TRANS       PACKAGE RCHA             ON UNIT   1016 AT TIME STEP      7, STRESS PERIOD     34
 UBDSV06 SAVING              CHD IN MODEL TEST_TRANS       PACKAGE TEST_TRANS      CONNECTED TO MODEL TEST_TRANS       PACKAGE CHD              ON UNIT   1016 AT TIME STEP      7, STRESS PERIOD     34

 HEAD WILL BE SAVED ON UNIT 1017 AT END OF TIME STEP    7, STRESS PERIOD   34
 UBDSV1 SAVING           STO-SS ON UNIT   1016 AT TIME STEP      8, STRESS PERIOD     34
 UBDSV1 SAVING           STO-SY ON UNIT   1016 AT TIME STEP      8, STRESS PERIOD     34
 UBDSV1 SAVING     FLOW-JA-FACE ON UNIT   1016 AT TIME STEP      8, STRESS PERIOD     34
 UBDSV06 SAVING              RCH IN MODEL TEST_TRANS       PACKAGE TEST_TRANS      CONNECTED TO MODEL TEST_TRANS       PACKAGE RCHA             ON UNIT   1016 AT TIME STEP      8, STRESS PERIOD     34
 UBDSV06 SAVING              CHD IN MODEL TEST_TRANS       PACKAGE TEST_TRANS      CONNECTED TO MODEL TEST_TRANS       PACKAGE CHD              ON UNIT   1016 AT TIME STEP      8, STRESS PERIOD     34

 HEAD WILL BE SAVED ON UNIT 1017 AT END OF TIME STEP    8, STRESS PERIOD   34
 UBDSV1 SAVING           STO-SS ON UNIT   1016 AT TIME STEP      9, STRESS PERIOD     34
 UBDSV1 SAVING           STO-SY ON UNIT   1016 AT TIME STEP      9, STRESS PERIOD     34
 UBDSV1 SAVING     FLOW-JA-FACE ON UNIT   1016 AT TIME STEP      9, STRESS PERIOD     34
 UBDSV06 SAVING              RCH IN MODEL TEST_TRANS       PACKAGE TEST_TRANS      CONNECTED TO MODEL TEST_TRANS       PACKAGE RCHA             ON UNIT   1016 AT TIME STEP      9, STRESS PERIOD     34
 UBDSV06 SAVING              CHD IN MODEL TEST_TRANS       PACKAGE TEST_TRANS      CONNECTED TO MODEL TEST_TRANS       PACKAGE CHD              ON UNIT   1016 AT TIME STEP      9, STRESS PERIOD     34

 HEAD WILL BE SAVED ON UNIT 1017 AT END OF TIME STEP    9, STRESS PERIOD   34
 UBDSV1 SAVING           STO-SS ON UNIT   1016 AT TIME STEP     10, STRESS PERIOD     34
 UBDSV1 SAVING           STO-SY ON UNIT   1016 AT TIME STEP     10, STRESS PERIOD     34
 UBDSV1 SAVING     FLOW-JA-FACE ON UNIT   1016 AT TIME STEP     10, STRESS PERIOD     34
 UBDSV06 SAVING              RCH IN MODEL TEST_TRANS       PACKAGE TEST_TRANS      CONNECTED TO MODEL TEST_TRANS       PACKAGE RCHA             ON UNIT   1016 AT TIME STEP     10, STRESS PERIOD     34
 UBDSV06 SAVING              CHD IN MODEL TEST_TRANS       PACKAGE TEST_TRANS      CONNECTED TO MODEL TEST_TRANS       PACKAGE CHD              ON UNIT   1016 AT TIME STEP     10, STRESS PERIOD     34
1
  HEAD IN LAYER   1 AT END OF TIME STEP  10 IN STRESS PERIOD   34
  ---------------------------------------------------------------------------

            1           2           3           4           5           6           7           8           9          10
           11          12          13          14          15          16          17          18          19          20
           21          22          23          24          25          26          27          28          29          30
 ........................................................................................................................
   1    27.66       27.66       27.65       27.64       27.62       27.60       27.57       27.54       27.50       27.46    
        27.41       27.36       27.30       27.24       27.16       27.08       27.00       26.90       26.80       26.68    
        26.56       26.42       26.27       26.09       25.90       25.69       25.44       25.15       24.80       24.34    
   2    27.66       27.66       27.65       27.64       27.62       27.60       27.57       27.54       27.50       27.46    
        27.41       27.36       27.30       27.24       27.16       27.08       27.00       26.90       26.80       26.68    
        26.56       26.42       26.27       26.09       25.90       25.69       25.44       25.15       24.80       24.34    
   3    27.66       27.66       27.65       27.64       27.62       27.60       27.57       27.54       27.50       27.46    
        27.41       27.36       27.30       27.24       27.16       27.08       27.00       26.90       26.80       26.68    
        26.56       26.42       26.27       26.09       25.90       25.69       25.44       25.15       24.80       24.34    
   4    27.66       27.66       27.65       27.64       27.62       27.60       27.57       27.54       27.50       27.46    
        27.41       27.36       27.30       27.24       27.16       27.08       27.00       26.90       26.80       26.68    
        26.56       26.42       26.27       26.09       25.90       25.69       25.44       25.15       24.80       24.34    
   5    27.66       27.66       27.65       27.64       27.62       27.60       27.57       27.54       27.50       27.46    
        27.41       27.36       27.30       27.24       27.16       27.08       27.00       26.90       26.80       26.68    
        26.56       26.42       26.27       26.09       25.90       25.69       25.44       25.15       24.80       24.34    
   6    27.66       27.66       27.65       27.64       27.62       27.60       27.57       27.54       27.50       27.46    
        27.41       27.36       27.30       27.24       27.16       27.08       27.00       26.90       26.80       26.68    
        26.56       26.42       26.27       26.09       25.90       25.69       25.44       25.15       24.80       24.34    
   7    27.66       27.66       27.65       27.64       27.62       27.60       27.57       27.54       27.50       27.46    
        27.41       27.36       27.30       27.24       27.16       27.08       27.00       26.90       26.80       26.68    
        26.56       26.42       26.27       26.09       25.90       25.69       25.44       25.15       24.80       24.34    
   8    27.66       27.66       27.65       27.64       27.62       27.60       27.57       27.54       27.50       27.46    
        27.41       27.36       27.30       27.24       27.16       27.08       27.00       26.90       26.80       26.68    
        26.56       26.42       26.27       26.09       25.90       25.69       25.44       25.15       24.80       24.34    
   9    27.66       27.66       27.65       27.64       27.62       27.60       27.57       27.54       27.50       27.46    
        27.41       27.36       27.30       27.24       27.16       27.08       27.00       26.90       26.80       26.68    
        26.56       26.42       26.27       26.09       25.90       25.69       25.44       25.15       24.80       24.34    
  10    27.66       27.66       27.65       27.64       27.62       27.60       27.57       27.54       27.50       27.46    
        27.41       27.36       27.30       27.24       27.16       27.08       27.00       26.90       26.80       26.68    
        26.56       26.42       26.27       26.09       25.90       25.69       25.44       25.15       24.80       24.34    
  11    27.66       27.66       27.65       27.64       27.62       27.60       27.57       27.54       27.50       27.46    
        27.41       27.36       27.30       27.24       27.16       27.08       27.00       26.90       26.80       26.68    
        26.56       26.42       26.27       26.09       25.90       25.69       25.44       25.15       24.80       24.34    
  12    27.66       27.66       27.65       27.64       27.62       27.60       27.57       27.54       27.50       27.46    
        27.41       27.36       27.30       27.24       27.16       27.08       27.00       26.90       26.80       26.68    
        26.56       26.42       26.27       26.09       25.90       25.69       25.44       25.15       24.80       24.34    
  13    27.66       27.66       27.65       27.64       27.62       27.60       27.57       27.54       27.50       27.46    
        27.41       27.36       27.30       27.24       27.16       27.08       27.00       26.90       26.80       26.68    
        26.56       26.42       26.27       26.09       25.90       25.69       25.44       25.15       24.80       24.34    
  14    27.66       27.66       27.65       27.64       27.62       27.60       27.57       27.54       27.50       27.46    
        27.41       27.36       27.30       27.24       27.16       27.08       27.00       26.90       26.80       26.68    
        26.56       26.42       26.27       26.09       25.90       25.69       25.44       25.15       24.80       24.34    
  15    27.66       27.66       27.65       27.64       27.62       27.60       27.57       27.54       27.50       27.46    
        27.41       27.36       27.30       27.24       27.16       27.08       27.00       26.90       26.80       26.68    
        26.56       26.42       26.27       26.09       25.90       25.69       25.44       25.15       24.80       24.34    
  16    27.66       27.66       27.65       27.64       27.62       27.60       27.57       27.54       27.50       27.46    
        27.41       27.36       27.30       27.24       27.16       27.08       27.00       26.90       26.80       26.68    
        26.56       26.42       26.27       26.09       25.90       25.69       25.44       25.15       24.80       24.34    
  17    27.66       27.66       27.65       27.64       27.62       27.60       27.57       27.54       27.50       27.46    
        27.41       27.36       27.30       27.24       27.16       27.08       27.00       26.90       26.80       26.68    
        26.56       26.42       26.27       26.09       25.90       25.69       25.44       25.15       24.80       24.34    
  18    27.66       27.66       27.65       27.64       27.62       27.60       27.57       27.54       27.50       27.46    
        27.41       27.36       27.30       27.24       27.16       27.08       27.00       26.90       26.80       26.68    
        26.56       26.42       26.27       26.09       25.90       25.69       25.44       25.15       24.80       24.34    
  19    27.66       27.66       27.65       27.64       27.62       27.60       27.57       27.54       27.50       27.46    
        27.41       27.36       27.30       27.24       27.16       27.08       27.00       26.90       26.80       26.68    
        26.56       26.42       26.27       26.09       25.90       25.69       25.44       25.15       24.80       24.34    
  20    27.66       27.66       27.65       27.64       27.62       27.60       27.57       27.54       27.50       27.46    
        27.41       27.36       27.30       27.24       27.16       27.08       27.00       26.90       26.80       26.68    
        26.56       26.42       26.27       26.09       25.90       25.69       25.44       25.15       24.80       24.34    
  21    27.66       27.66       27.65       27.64       27.62       27.60       27.57       27.54       27.50       27.46    
        27.41       27.36       27.30       27.24       27.16       27.08       27.00       26.90       26.80       26.68    
        26.56       26.42       26.27       26.09       25.90       25.69       25.44       25.15       24.80       24.34    
  22    27.66       27.66       27.65       27.64       27.62       27.60       27.57       27.54       27.50       27.46    
        27.41       27.36       27.30       27.24       27.16       27.08       27.00       26.90       26.80       26.68    
        26.56       26.42       26.27       26.09       25.90       25.69       25.44       25.15       24.80       24.34    
  23    27.66       27.66       27.65       27.64       27.62       27.60       27.57       27.54       27.50       27.46    
        27.41       27.36       27.30       27.24       27.16       27.08       27.00       26.90       26.80       26.68    
        26.56       26.42       26.27       26.09       25.90       25.69       25.44       25.15       24.80       24.34    
  24    27.66       27.66       27.65       27.64       27.62       27.60       27.57       27.54       27.50       27.46    
        27.41       27.36       27.30       27.24       27.16       27.08       27.00       26.90       26.80       26.68    
        26.56       26.42       26.27       26.09       25.90       25.69       25.44       25.15       24.80       24.34    
  25    27.66       27.66       27.65       27.64       27.62       27.60       27.57       27.54       27.50       27.46    
        27.41       27.36       27.30       27.24       27.16       27.08       27.00       26.90       26.80       26.68    
        26.56       26.42       26.27       26.09       25.90       25.69       25.44       25.15       24.80       24.34    
  26    27.66       27.66       27.65       27.64       27.62       27.60       27.57       27.54       27.50       27.46    
        27.41       27.36       27.30       27.24       27.16       27.08       27.00       26.90       26.80       26.68    
        26.56       26.42       26.27       26.09       25.90       25.69       25.44       25.15       24.80       24.34    
  27    27.66       27.66       27.65       27.64       27.62       27.60       27.57       27.54       27.50       27.46    
        27.41       27.36       27.30       27.24       27.16       27.08       27.00       26.90       26.80       26.68    
        26.56       26.42       26.27       26.09       25.90       25.69       25.44       25.15       24.80       24.34    
  28    27.66       27.66       27.65       27.64       27.62       27.60       27.57       27.54       27.50       27.46    
        27.41       27.36       27.30       27.24       27.16       27.08       27.00       26.90       26.80       26.68    
        26.56       26.42       26.27       26.09       25.90       25.69       25.44       25.15       24.80       24.34    
  29    27.66       27.66       27.65       27.64       27.62       27.60       27.57       27.54       27.50       27.46    
        27.41       27.36       27.30       27.24       27.16       27.08       27.00       26.90       26.80       26.68    
        26.56       26.42       26.27       26.09       25.90       25.69       25.44       25.15       24.80       24.34    
  30    27.66       27.66       27.65       27.64       27.62       27.60       27.57       27.54       27.50       27.46    
        27.41       27.36       27.30       27.24       27.16       27.08       27.00       26.90       26.80       26.68    
        26.56       26.42       26.27       26.09       25.90       25.69       25.44       25.15       24.80       24.34    

 HEAD WILL BE SAVED ON UNIT 1017 AT END OF TIME STEP   10, STRESS PERIOD   34


  VOLUME BUDGET FOR ENTIRE MODEL AT END OF TIME STEP   10, STRESS PERIOD  34
  ---------------------------------------------------------------------------------------------------

     CUMULATIVE VOLUME      L**3       RATES FOR THIS TIME STEP      L**3/T          PACKAGE NAME    
     ------------------                 ------------------------                     ----------------

           IN:                                      IN:
           ---                                      ---
              STO-SS =          59.9705                STO-SS =       1.3594E-02     STORAGE         
              STO-SY =       38774.2081                STO-SY =           9.4044     STORAGE         
                 RCH =      158626.0996                   RCH =         190.6849     RCHA            
                 CHD =        3520.9028                   CHD =           0.0000     CHD             

            TOTAL IN =      200981.1810              TOTAL IN =         200.1029

          OUT:                                     OUT:
          ----                                     ----
              STO-SS =          44.5719                STO-SS =       2.3049E-02     STORAGE         
              STO-SY =       29123.3644                STO-SY =          14.3720     STORAGE         
                 RCH =           0.0000                   RCH =           0.0000     RCHA            
                 CHD =      171812.4210                   CHD =         185.7044     CHD             

           TOTAL OUT =      200980.3573             TOTAL OUT =         200.0994

            IN - OUT =           0.8237              IN - OUT =       3.4217E-03

 PERCENT DISCREPANCY =           0.00     PERCENT DISCREPANCY =           0.00




         TIME SUMMARY AT END OF TIME STEP   10 IN STRESS PERIOD   34
                    SECONDS     MINUTES      HOURS       DAYS        YEARS
                    -----------------------------------------------------------
   TIME STEP LENGTH 2.59200E+05  4320.0      72.000      3.0000     8.21355E-03
 STRESS PERIOD TIME 2.59200E+06  43200.      720.00      30.000     8.21355E-02
         TOTAL TIME 8.56224E+07 1.42704E+06  23784.      991.00      2.7132    

 OUTPUT CONTROL FOR STRESS PERIOD 35 IS REPEATED USING SETTINGS FROM A PREVIOUS STRESS PERIOD.


 STRESS PERIOD 35 IS TRANSIENT


                 RECHARGE =  0.2465750E-02
 UBDSV1 SAVING           STO-SS ON UNIT   1016 AT TIME STEP      1, STRESS PERIOD     35
 UBDSV1 SAVING           STO-SY ON UNIT   1016 AT TIME STEP      1, STRESS PERIOD     35
 UBDSV1 SAVING     FLOW-JA-FACE ON UNIT   1016 AT TIME STEP      1, STRESS PERIOD     35
 UBDSV06 SAVING              RCH IN MODEL TEST_TRANS       PACKAGE TEST_TRANS      CONNECTED TO MODEL TEST_TRANS       PACKAGE RCHA             ON UNIT   1016 AT TIME STEP      1, STRESS PERIOD     35
 UBDSV06 SAVING              CHD IN MODEL TEST_TRANS       PACKAGE TEST_TRANS      CONNECTED TO MODEL TEST_TRANS       PACKAGE CHD              ON UNIT   1016 AT TIME STEP      1, STRESS PERIOD     35
1
  HEAD IN LAYER   1 AT END OF TIME STEP   1 IN STRESS PERIOD   35
  ---------------------------------------------------------------------------

            1           2           3           4           5           6           7           8           9          10
           11          12          13          14          15          16          17          18          19          20
           21          22          23          24          25          26          27          28          29          30
 ........................................................................................................................
   1    27.67       27.67       27.66       27.65       27.63       27.61       27.58       27.55       27.51       27.47    
        27.42       27.37       27.31       27.24       27.17       27.09       27.00       26.91       26.80       26.69    
        26.56       26.42       26.26       26.09       25.90       25.68       25.43       25.14       24.77       24.24    
   2    27.67       27.67       27.66       27.65       27.63       27.61       27.58       27.55       27.51       27.47    
        27.42       27.37       27.31       27.24       27.17       27.09       27.00       26.91       26.80       26.69    
        26.56       26.42       26.26       26.09       25.90       25.68       25.43       25.14       24.77       24.24    
   3    27.67       27.67       27.66       27.65       27.63       27.61       27.58       27.55       27.51       27.47    
        27.42       27.37       27.31       27.24       27.17       27.09       27.00       26.91       26.80       26.69    
        26.56       26.42       26.26       26.09       25.90       25.68       25.43       25.14       24.77       24.24    
   4    27.67       27.67       27.66       27.65       27.63       27.61       27.58       27.55       27.51       27.47    
        27.42       27.37       27.31       27.24       27.17       27.09       27.00       26.91       26.80       26.69    
        26.56       26.42       26.26       26.09       25.90       25.68       25.43       25.14       24.77       24.24    
   5    27.67       27.67       27.66       27.65       27.63       27.61       27.58       27.55       27.51       27.47    
        27.42       27.37       27.31       27.24       27.17       27.09       27.00       26.91       26.80       26.69    
        26.56       26.42       26.26       26.09       25.90       25.68       25.43       25.14       24.77       24.24    
   6    27.67       27.67       27.66       27.65       27.63       27.61       27.58       27.55       27.51       27.47    
        27.42       27.37       27.31       27.24       27.17       27.09       27.00       26.91       26.80       26.69    
        26.56       26.42       26.26       26.09       25.90       25.68       25.43       25.14       24.77       24.24    
   7    27.67       27.67       27.66       27.65       27.63       27.61       27.58       27.55       27.51       27.47    
        27.42       27.37       27.31       27.24       27.17       27.09       27.00       26.91       26.80       26.69    
        26.56       26.42       26.26       26.09       25.90       25.68       25.43       25.14       24.77       24.24    
   8    27.67       27.67       27.66       27.65       27.63       27.61       27.58       27.55       27.51       27.47    
        27.42       27.37       27.31       27.24       27.17       27.09       27.00       26.91       26.80       26.69    
        26.56       26.42       26.26       26.09       25.90       25.68       25.43       25.14       24.77       24.24    
   9    27.67       27.67       27.66       27.65       27.63       27.61       27.58       27.55       27.51       27.47    
        27.42       27.37       27.31       27.24       27.17       27.09       27.00       26.91       26.80       26.69    
        26.56       26.42       26.26       26.09       25.90       25.68       25.43       25.14       24.77       24.24    
  10    27.67       27.67       27.66       27.65       27.63       27.61       27.58       27.55       27.51       27.47    
        27.42       27.37       27.31       27.24       27.17       27.09       27.00       26.91       26.80       26.69    
        26.56       26.42       26.26       26.09       25.90       25.68       25.43       25.14       24.77       24.24    
  11    27.67       27.67       27.66       27.65       27.63       27.61       27.58       27.55       27.51       27.47    
        27.42       27.37       27.31       27.24       27.17       27.09       27.00       26.91       26.80       26.69    
        26.56       26.42       26.26       26.09       25.90       25.68       25.43       25.14       24.77       24.24    
  12    27.67       27.67       27.66       27.65       27.63       27.61       27.58       27.55       27.51       27.47    
        27.42       27.37       27.31       27.24       27.17       27.09       27.00       26.91       26.80       26.69    
        26.56       26.42       26.26       26.09       25.90       25.68       25.43       25.14       24.77       24.24    
  13    27.67       27.67       27.66       27.65       27.63       27.61       27.58       27.55       27.51       27.47    
        27.42       27.37       27.31       27.24       27.17       27.09       27.00       26.91       26.80       26.69    
        26.56       26.42       26.26       26.09       25.90       25.68       25.43       25.14       24.77       24.24    
  14    27.67       27.67       27.66       27.65       27.63       27.61       27.58       27.55       27.51       27.47    
        27.42       27.37       27.31       27.24       27.17       27.09       27.00       26.91       26.80       26.69    
        26.56       26.42       26.26       26.09       25.90       25.68       25.43       25.14       24.77       24.24    
  15    27.67       27.67       27.66       27.65       27.63       27.61       27.58       27.55       27.51       27.47    
        27.42       27.37       27.31       27.24       27.17       27.09       27.00       26.91       26.80       26.69    
        26.56       26.42       26.26       26.09       25.90       25.68       25.43       25.14       24.77       24.24    
  16    27.67       27.67       27.66       27.65       27.63       27.61       27.58       27.55       27.51       27.47    
        27.42       27.37       27.31       27.24       27.17       27.09       27.00       26.91       26.80       26.69    
        26.56       26.42       26.26       26.09       25.90       25.68       25.43       25.14       24.77       24.24    
  17    27.67       27.67       27.66       27.65       27.63       27.61       27.58       27.55       27.51       27.47    
        27.42       27.37       27.31       27.24       27.17       27.09       27.00       26.91       26.80       26.69    
        26.56       26.42       26.26       26.09       25.90       25.68       25.43       25.14       24.77       24.24    
  18    27.67       27.67       27.66       27.65       27.63       27.61       27.58       27.55       27.51       27.47    
        27.42       27.37       27.31       27.24       27.17       27.09       27.00       26.91       26.80       26.69    
        26.56       26.42       26.26       26.09       25.90       25.68       25.43       25.14       24.77       24.24    
  19    27.67       27.67       27.66       27.65       27.63       27.61       27.58       27.55       27.51       27.47    
        27.42       27.37       27.31       27.24       27.17       27.09       27.00       26.91       26.80       26.69    
        26.56       26.42       26.26       26.09       25.90       25.68       25.43       25.14       24.77       24.24    
  20    27.67       27.67       27.66       27.65       27.63       27.61       27.58       27.55       27.51       27.47    
        27.42       27.37       27.31       27.24       27.17       27.09       27.00       26.91       26.80       26.69    
        26.56       26.42       26.26       26.09       25.90       25.68       25.43       25.14       24.77       24.24    
  21    27.67       27.67       27.66       27.65       27.63       27.61       27.58       27.55       27.51       27.47    
        27.42       27.37       27.31       27.24       27.17       27.09       27.00       26.91       26.80       26.69    
        26.56       26.42       26.26       26.09       25.90       25.68       25.43       25.14       24.77       24.24    
  22    27.67       27.67       27.66       27.65       27.63       27.61       27.58       27.55       27.51       27.47    
        27.42       27.37       27.31       27.24       27.17       27.09       27.00       26.91       26.80       26.69    
        26.56       26.42       26.26       26.09       25.90       25.68       25.43       25.14       24.77       24.24    
  23    27.67       27.67       27.66       27.65       27.63       27.61       27.58       27.55       27.51       27.47    
        27.42       27.37       27.31       27.24       27.17       27.09       27.00       26.91       26.80       26.69    
        26.56       26.42       26.26       26.09       25.90       25.68       25.43       25.14       24.77       24.24    
  24    27.67       27.67       27.66       27.65       27.63       27.61       27.58       27.55       27.51       27.47    
        27.42       27.37       27.31       27.24       27.17       27.09       27.00       26.91       26.80       26.69    
        26.56       26.42       26.26       26.09       25.90       25.68       25.43       25.14       24.77       24.24    
  25    27.67       27.67       27.66       27.65       27.63       27.61       27.58       27.55       27.51       27.47    
        27.42       27.37       27.31       27.24       27.17       27.09       27.00       26.91       26.80       26.69    
        26.56       26.42       26.26       26.09       25.90       25.68       25.43       25.14       24.77       24.24    
  26    27.67       27.67       27.66       27.65       27.63       27.61       27.58       27.55       27.51       27.47    
        27.42       27.37       27.31       27.24       27.17       27.09       27.00       26.91       26.80       26.69    
        26.56       26.42       26.26       26.09       25.90       25.68       25.43       25.14       24.77       24.24    
  27    27.67       27.67       27.66       27.65       27.63       27.61       27.58       27.55       27.51       27.47    
        27.42       27.37       27.31       27.24       27.17       27.09       27.00       26.91       26.80       26.69    
        26.56       26.42       26.26       26.09       25.90       25.68       25.43       25.14       24.77       24.24    
  28    27.67       27.67       27.66       27.65       27.63       27.61       27.58       27.55       27.51       27.47    
        27.42       27.37       27.31       27.24       27.17       27.09       27.00       26.91       26.80       26.69    
        26.56       26.42       26.26       26.09       25.90       25.68       25.43       25.14       24.77       24.24    
  29    27.67       27.67       27.66       27.65       27.63       27.61       27.58       27.55       27.51       27.47    
        27.42       27.37       27.31       27.24       27.17       27.09       27.00       26.91       26.80       26.69    
        26.56       26.42       26.26       26.09       25.90       25.68       25.43       25.14       24.77       24.24    
  30    27.67       27.67       27.66       27.65       27.63       27.61       27.58       27.55       27.51       27.47    
        27.42       27.37       27.31       27.24       27.17       27.09       27.00       26.91       26.80       26.69    
        26.56       26.42       26.26       26.09       25.90       25.68       25.43       25.14       24.77       24.24    

 HEAD WILL BE SAVED ON UNIT 1017 AT END OF TIME STEP    1, STRESS PERIOD   35



         TIME SUMMARY AT END OF TIME STEP    1 IN STRESS PERIOD   35
                    SECONDS     MINUTES      HOURS       DAYS        YEARS
                    -----------------------------------------------------------
   TIME STEP LENGTH 2.59200E+05  4320.0      72.000      3.0000     8.21355E-03
 STRESS PERIOD TIME 2.59200E+05  4320.0      72.000      3.0000     8.21355E-03
         TOTAL TIME 8.58816E+07 1.43136E+06  23856.      994.00      2.7214    
 UBDSV1 SAVING           STO-SS ON UNIT   1016 AT TIME STEP      2, STRESS PERIOD     35
 UBDSV1 SAVING           STO-SY ON UNIT   1016 AT TIME STEP      2, STRESS PERIOD     35
 UBDSV1 SAVING     FLOW-JA-FACE ON UNIT   1016 AT TIME STEP      2, STRESS PERIOD     35
 UBDSV06 SAVING              RCH IN MODEL TEST_TRANS       PACKAGE TEST_TRANS      CONNECTED TO MODEL TEST_TRANS       PACKAGE RCHA             ON UNIT   1016 AT TIME STEP      2, STRESS PERIOD     35
 UBDSV06 SAVING              CHD IN MODEL TEST_TRANS       PACKAGE TEST_TRANS      CONNECTED TO MODEL TEST_TRANS       PACKAGE CHD              ON UNIT   1016 AT TIME STEP      2, STRESS PERIOD     35

 HEAD WILL BE SAVED ON UNIT 1017 AT END OF TIME STEP    2, STRESS PERIOD   35
 UBDSV1 SAVING           STO-SS ON UNIT   1016 AT TIME STEP      3, STRESS PERIOD     35
 UBDSV1 SAVING           STO-SY ON UNIT   1016 AT TIME STEP      3, STRESS PERIOD     35
 UBDSV1 SAVING     FLOW-JA-FACE ON UNIT   1016 AT TIME STEP      3, STRESS PERIOD     35
 UBDSV06 SAVING              RCH IN MODEL TEST_TRANS       PACKAGE TEST_TRANS      CONNECTED TO MODEL TEST_TRANS       PACKAGE RCHA             ON UNIT   1016 AT TIME STEP      3, STRESS PERIOD     35
 UBDSV06 SAVING              CHD IN MODEL TEST_TRANS       PACKAGE TEST_TRANS      CONNECTED TO MODEL TEST_TRANS       PACKAGE CHD              ON UNIT   1016 AT TIME STEP      3, STRESS PERIOD     35

 HEAD WILL BE SAVED ON UNIT 1017 AT END OF TIME STEP    3, STRESS PERIOD   35
 UBDSV1 SAVING           STO-SS ON UNIT   1016 AT TIME STEP      4, STRESS PERIOD     35
 UBDSV1 SAVING           STO-SY ON UNIT   1016 AT TIME STEP      4, STRESS PERIOD     35
 UBDSV1 SAVING     FLOW-JA-FACE ON UNIT   1016 AT TIME STEP      4, STRESS PERIOD     35
 UBDSV06 SAVING              RCH IN MODEL TEST_TRANS       PACKAGE TEST_TRANS      CONNECTED TO MODEL TEST_TRANS       PACKAGE RCHA             ON UNIT   1016 AT TIME STEP      4, STRESS PERIOD     35
 UBDSV06 SAVING              CHD IN MODEL TEST_TRANS       PACKAGE TEST_TRANS      CONNECTED TO MODEL TEST_TRANS       PACKAGE CHD              ON UNIT   1016 AT TIME STEP      4, STRESS PERIOD     35

 HEAD WILL BE SAVED ON UNIT 1017 AT END OF TIME STEP    4, STRESS PERIOD   35
 UBDSV1 SAVING           STO-SS ON UNIT   1016 AT TIME STEP      5, STRESS PERIOD     35
 UBDSV1 SAVING           STO-SY ON UNIT   1016 AT TIME STEP      5, STRESS PERIOD     35
 UBDSV1 SAVING     FLOW-JA-FACE ON UNIT   1016 AT TIME STEP      5, STRESS PERIOD     35
 UBDSV06 SAVING              RCH IN MODEL TEST_TRANS       PACKAGE TEST_TRANS      CONNECTED TO MODEL TEST_TRANS       PACKAGE RCHA             ON UNIT   1016 AT TIME STEP      5, STRESS PERIOD     35
 UBDSV06 SAVING              CHD IN MODEL TEST_TRANS       PACKAGE TEST_TRANS      CONNECTED TO MODEL TEST_TRANS       PACKAGE CHD              ON UNIT   1016 AT TIME STEP      5, STRESS PERIOD     35

 HEAD WILL BE SAVED ON UNIT 1017 AT END OF TIME STEP    5, STRESS PERIOD   35
 UBDSV1 SAVING           STO-SS ON UNIT   1016 AT TIME STEP      6, STRESS PERIOD     35
 UBDSV1 SAVING           STO-SY ON UNIT   1016 AT TIME STEP      6, STRESS PERIOD     35
 UBDSV1 SAVING     FLOW-JA-FACE ON UNIT   1016 AT TIME STEP      6, STRESS PERIOD     35
 UBDSV06 SAVING              RCH IN MODEL TEST_TRANS       PACKAGE TEST_TRANS      CONNECTED TO MODEL TEST_TRANS       PACKAGE RCHA             ON UNIT   1016 AT TIME STEP      6, STRESS PERIOD     35
 UBDSV06 SAVING              CHD IN MODEL TEST_TRANS       PACKAGE TEST_TRANS      CONNECTED TO MODEL TEST_TRANS       PACKAGE CHD              ON UNIT   1016 AT TIME STEP      6, STRESS PERIOD     35

 HEAD WILL BE SAVED ON UNIT 1017 AT END OF TIME STEP    6, STRESS PERIOD   35
 UBDSV1 SAVING           STO-SS ON UNIT   1016 AT TIME STEP      7, STRESS PERIOD     35
 UBDSV1 SAVING           STO-SY ON UNIT   1016 AT TIME STEP      7, STRESS PERIOD     35
 UBDSV1 SAVING     FLOW-JA-FACE ON UNIT   1016 AT TIME STEP      7, STRESS PERIOD     35
 UBDSV06 SAVING              RCH IN MODEL TEST_TRANS       PACKAGE TEST_TRANS      CONNECTED TO MODEL TEST_TRANS       PACKAGE RCHA             ON UNIT   1016 AT TIME STEP      7, STRESS PERIOD     35
 UBDSV06 SAVING              CHD IN MODEL TEST_TRANS       PACKAGE TEST_TRANS      CONNECTED TO MODEL TEST_TRANS       PACKAGE CHD              ON UNIT   1016 AT TIME STEP      7, STRESS PERIOD     35

 HEAD WILL BE SAVED ON UNIT 1017 AT END OF TIME STEP    7, STRESS PERIOD   35
 UBDSV1 SAVING           STO-SS ON UNIT   1016 AT TIME STEP      8, STRESS PERIOD     35
 UBDSV1 SAVING           STO-SY ON UNIT   1016 AT TIME STEP      8, STRESS PERIOD     35
 UBDSV1 SAVING     FLOW-JA-FACE ON UNIT   1016 AT TIME STEP      8, STRESS PERIOD     35
 UBDSV06 SAVING              RCH IN MODEL TEST_TRANS       PACKAGE TEST_TRANS      CONNECTED TO MODEL TEST_TRANS       PACKAGE RCHA             ON UNIT   1016 AT TIME STEP      8, STRESS PERIOD     35
 UBDSV06 SAVING              CHD IN MODEL TEST_TRANS       PACKAGE TEST_TRANS      CONNECTED TO MODEL TEST_TRANS       PACKAGE CHD              ON UNIT   1016 AT TIME STEP      8, STRESS PERIOD     35

 HEAD WILL BE SAVED ON UNIT 1017 AT END OF TIME STEP    8, STRESS PERIOD   35
 UBDSV1 SAVING           STO-SS ON UNIT   1016 AT TIME STEP      9, STRESS PERIOD     35
 UBDSV1 SAVING           STO-SY ON UNIT   1016 AT TIME STEP      9, STRESS PERIOD     35
 UBDSV1 SAVING     FLOW-JA-FACE ON UNIT   1016 AT TIME STEP      9, STRESS PERIOD     35
 UBDSV06 SAVING              RCH IN MODEL TEST_TRANS       PACKAGE TEST_TRANS      CONNECTED TO MODEL TEST_TRANS       PACKAGE RCHA             ON UNIT   1016 AT TIME STEP      9, STRESS PERIOD     35
 UBDSV06 SAVING              CHD IN MODEL TEST_TRANS       PACKAGE TEST_TRANS      CONNECTED TO MODEL TEST_TRANS       PACKAGE CHD              ON UNIT   1016 AT TIME STEP      9, STRESS PERIOD     35

 HEAD WILL BE SAVED ON UNIT 1017 AT END OF TIME STEP    9, STRESS PERIOD   35
 UBDSV1 SAVING           STO-SS ON UNIT   1016 AT TIME STEP     10, STRESS PERIOD     35
 UBDSV1 SAVING           STO-SY ON UNIT   1016 AT TIME STEP     10, STRESS PERIOD     35
 UBDSV1 SAVING     FLOW-JA-FACE ON UNIT   1016 AT TIME STEP     10, STRESS PERIOD     35
 UBDSV06 SAVING              RCH IN MODEL TEST_TRANS       PACKAGE TEST_TRANS      CONNECTED TO MODEL TEST_TRANS       PACKAGE RCHA             ON UNIT   1016 AT TIME STEP     10, STRESS PERIOD     35
 UBDSV06 SAVING              CHD IN MODEL TEST_TRANS       PACKAGE TEST_TRANS      CONNECTED TO MODEL TEST_TRANS       PACKAGE CHD              ON UNIT   1016 AT TIME STEP     10, STRESS PERIOD     35
1
  HEAD IN LAYER   1 AT END OF TIME STEP  10 IN STRESS PERIOD   35
  ---------------------------------------------------------------------------

            1           2           3           4           5           6           7           8           9          10
           11          12          13          14          15          16          17          18          19          20
           21          22          23          24          25          26          27          28          29          30
 ........................................................................................................................
   1    27.75       27.75       27.74       27.72       27.70       27.68       27.65       27.62       27.58       27.53    
        27.48       27.42       27.36       27.29       27.21       27.13       27.04       26.94       26.82       26.70    
        26.57       26.43       26.27       26.09       25.89       25.67       25.41       25.11       24.75       24.24    
   2    27.75       27.75       27.74       27.72       27.70       27.68       27.65       27.62       27.58       27.53    
        27.48       27.42       27.36       27.29       27.21       27.13       27.04       26.94       26.82       26.70    
        26.57       26.43       26.27       26.09       25.89       25.67       25.41       25.11       24.75       24.24    
   3    27.75       27.75       27.74       27.72       27.70       27.68       27.65       27.62       27.58       27.53    
        27.48       27.42       27.36       27.29       27.21       27.13       27.04       26.94       26.82       26.70    
        26.57       26.43       26.27       26.09       25.89       25.67       25.41       25.11       24.75       24.24    
   4    27.75       27.75       27.74       27.72       27.70       27.68       27.65       27.62       27.58       27.53    
        27.48       27.42       27.36       27.29       27.21       27.13       27.04       26.94       26.82       26.70    
        26.57       26.43       26.27       26.09       25.89       25.67       25.41       25.11       24.75       24.24    
   5    27.75       27.75       27.74       27.72       27.70       27.68       27.65       27.62       27.58       27.53    
        27.48       27.42       27.36       27.29       27.21       27.13       27.04       26.94       26.82       26.70    
        26.57       26.43       26.27       26.09       25.89       25.67       25.41       25.11       24.75       24.24    
   6    27.75       27.75       27.74       27.72       27.70       27.68       27.65       27.62       27.58       27.53    
        27.48       27.42       27.36       27.29       27.21       27.13       27.04       26.94       26.82       26.70    
        26.57       26.43       26.27       26.09       25.89       25.67       25.41       25.11       24.75       24.24    
   7    27.75       27.75       27.74       27.72       27.70       27.68       27.65       27.62       27.58       27.53    
        27.48       27.42       27.36       27.29       27.21       27.13       27.04       26.94       26.82       26.70    
        26.57       26.43       26.27       26.09       25.89       25.67       25.41       25.11       24.75       24.24    
   8    27.75       27.75       27.74       27.72       27.70       27.68       27.65       27.62       27.58       27.53    
        27.48       27.42       27.36       27.29       27.21       27.13       27.04       26.94       26.82       26.70    
        26.57       26.43       26.27       26.09       25.89       25.67       25.41       25.11       24.75       24.24    
   9    27.75       27.75       27.74       27.72       27.70       27.68       27.65       27.62       27.58       27.53    
        27.48       27.42       27.36       27.29       27.21       27.13       27.04       26.94       26.82       26.70    
        26.57       26.43       26.27       26.09       25.89       25.67       25.41       25.11       24.75       24.24    
  10    27.75       27.75       27.74       27.72       27.70       27.68       27.65       27.62       27.58       27.53    
        27.48       27.42       27.36       27.29       27.21       27.13       27.04       26.94       26.82       26.70    
        26.57       26.43       26.27       26.09       25.89       25.67       25.41       25.11       24.75       24.24    
  11    27.75       27.75       27.74       27.72       27.70       27.68       27.65       27.62       27.58       27.53    
        27.48       27.42       27.36       27.29       27.21       27.13       27.04       26.94       26.82       26.70    
        26.57       26.43       26.27       26.09       25.89       25.67       25.41       25.11       24.75       24.24    
  12    27.75       27.75       27.74       27.72       27.70       27.68       27.65       27.62       27.58       27.53    
        27.48       27.42       27.36       27.29       27.21       27.13       27.04       26.94       26.82       26.70    
        26.57       26.43       26.27       26.09       25.89       25.67       25.41       25.11       24.75       24.24    
  13    27.75       27.75       27.74       27.72       27.70       27.68       27.65       27.62       27.58       27.53    
        27.48       27.42       27.36       27.29       27.21       27.13       27.04       26.94       26.82       26.70    
        26.57       26.43       26.27       26.09       25.89       25.67       25.41       25.11       24.75       24.24    
  14    27.75       27.75       27.74       27.72       27.70       27.68       27.65       27.62       27.58       27.53    
        27.48       27.42       27.36       27.29       27.21       27.13       27.04       26.94       26.82       26.70    
        26.57       26.43       26.27       26.09       25.89       25.67       25.41       25.11       24.75       24.24    
  15    27.75       27.75       27.74       27.72       27.70       27.68       27.65       27.62       27.58       27.53    
        27.48       27.42       27.36       27.29       27.21       27.13       27.04       26.94       26.82       26.70    
        26.57       26.43       26.27       26.09       25.89       25.67       25.41       25.11       24.75       24.24    
  16    27.75       27.75       27.74       27.72       27.70       27.68       27.65       27.62       27.58       27.53    
        27.48       27.42       27.36       27.29       27.21       27.13       27.04       26.94       26.82       26.70    
        26.57       26.43       26.27       26.09       25.89       25.67       25.41       25.11       24.75       24.24    
  17    27.75       27.75       27.74       27.72       27.70       27.68       27.65       27.62       27.58       27.53    
        27.48       27.42       27.36       27.29       27.21       27.13       27.04       26.94       26.82       26.70    
        26.57       26.43       26.27       26.09       25.89       25.67       25.41       25.11       24.75       24.24    
  18    27.75       27.75       27.74       27.72       27.70       27.68       27.65       27.62       27.58       27.53    
        27.48       27.42       27.36       27.29       27.21       27.13       27.04       26.94       26.82       26.70    
        26.57       26.43       26.27       26.09       25.89       25.67       25.41       25.11       24.75       24.24    
  19    27.75       27.75       27.74       27.72       27.70       27.68       27.65       27.62       27.58       27.53    
        27.48       27.42       27.36       27.29       27.21       27.13       27.04       26.94       26.82       26.70    
        26.57       26.43       26.27       26.09       25.89       25.67       25.41       25.11       24.75       24.24    
  20    27.75       27.75       27.74       27.72       27.70       27.68       27.65       27.62       27.58       27.53    
        27.48       27.42       27.36       27.29       27.21       27.13       27.04       26.94       26.82       26.70    
        26.57       26.43       26.27       26.09       25.89       25.67       25.41       25.11       24.75       24.24    
  21    27.75       27.75       27.74       27.72       27.70       27.68       27.65       27.62       27.58       27.53    
        27.48       27.42       27.36       27.29       27.21       27.13       27.04       26.94       26.82       26.70    
        26.57       26.43       26.27       26.09       25.89       25.67       25.41       25.11       24.75       24.24    
  22    27.75       27.75       27.74       27.72       27.70       27.68       27.65       27.62       27.58       27.53    
        27.48       27.42       27.36       27.29       27.21       27.13       27.04       26.94       26.82       26.70    
        26.57       26.43       26.27       26.09       25.89       25.67       25.41       25.11       24.75       24.24    
  23    27.75       27.75       27.74       27.72       27.70       27.68       27.65       27.62       27.58       27.53    
        27.48       27.42       27.36       27.29       27.21       27.13       27.04       26.94       26.82       26.70    
        26.57       26.43       26.27       26.09       25.89       25.67       25.41       25.11       24.75       24.24    
  24    27.75       27.75       27.74       27.72       27.70       27.68       27.65       27.62       27.58       27.53    
        27.48       27.42       27.36       27.29       27.21       27.13       27.04       26.94       26.82       26.70    
        26.57       26.43       26.27       26.09       25.89       25.67       25.41       25.11       24.75       24.24    
  25    27.75       27.75       27.74       27.72       27.70       27.68       27.65       27.62       27.58       27.53    
        27.48       27.42       27.36       27.29       27.21       27.13       27.04       26.94       26.82       26.70    
        26.57       26.43       26.27       26.09       25.89       25.67       25.41       25.11       24.75       24.24    
  26    27.75       27.75       27.74       27.72       27.70       27.68       27.65       27.62       27.58       27.53    
        27.48       27.42       27.36       27.29       27.21       27.13       27.04       26.94       26.82       26.70    
        26.57       26.43       26.27       26.09       25.89       25.67       25.41       25.11       24.75       24.24    
  27    27.75       27.75       27.74       27.72       27.70       27.68       27.65       27.62       27.58       27.53    
        27.48       27.42       27.36       27.29       27.21       27.13       27.04       26.94       26.82       26.70    
        26.57       26.43       26.27       26.09       25.89       25.67       25.41       25.11       24.75       24.24    
  28    27.75       27.75       27.74       27.72       27.70       27.68       27.65       27.62       27.58       27.53    
        27.48       27.42       27.36       27.29       27.21       27.13       27.04       26.94       26.82       26.70    
        26.57       26.43       26.27       26.09       25.89       25.67       25.41       25.11       24.75       24.24    
  29    27.75       27.75       27.74       27.72       27.70       27.68       27.65       27.62       27.58       27.53    
        27.48       27.42       27.36       27.29       27.21       27.13       27.04       26.94       26.82       26.70    
        26.57       26.43       26.27       26.09       25.89       25.67       25.41       25.11       24.75       24.24    
  30    27.75       27.75       27.74       27.72       27.70       27.68       27.65       27.62       27.58       27.53    
        27.48       27.42       27.36       27.29       27.21       27.13       27.04       26.94       26.82       26.70    
        26.57       26.43       26.27       26.09       25.89       25.67       25.41       25.11       24.75       24.24    

 HEAD WILL BE SAVED ON UNIT 1017 AT END OF TIME STEP   10, STRESS PERIOD   35


  VOLUME BUDGET FOR ENTIRE MODEL AT END OF TIME STEP   10, STRESS PERIOD  35
  ---------------------------------------------------------------------------------------------------

     CUMULATIVE VOLUME      L**3       RATES FOR THIS TIME STEP      L**3/T          PACKAGE NAME    
     ------------------                 ------------------------                     ----------------

           IN:                                      IN:
           ---                                      ---
              STO-SS =          60.1115                STO-SS =           0.0000     STORAGE         
              STO-SY =       38876.6090                STO-SY =           0.0000     STORAGE         
                 RCH =      165061.7071                   RCH =         214.5203     RCHA            
                 CHD =        3520.9028                   CHD =           0.0000     CHD             

            TOTAL IN =      207519.3303              TOTAL IN =         214.5203

          OUT:                                     OUT:
          ----                                     ----
              STO-SS =          45.8334                STO-SS =       3.9588E-02     STORAGE         
              STO-SY =       29914.1047                STO-SY =          24.8915     STORAGE         
                 RCH =           0.0000                   RCH =           0.0000     RCHA            
                 CHD =      177558.6295                   CHD =         189.5987     CHD             

           TOTAL OUT =      207518.5676             TOTAL OUT =         214.5297

            IN - OUT =           0.7627              IN - OUT =      -9.4960E-03

 PERCENT DISCREPANCY =           0.00     PERCENT DISCREPANCY =          -0.00




         TIME SUMMARY AT END OF TIME STEP   10 IN STRESS PERIOD   35
                    SECONDS     MINUTES      HOURS       DAYS        YEARS
                    -----------------------------------------------------------
   TIME STEP LENGTH 2.59200E+05  4320.0      72.000      3.0000     8.21355E-03
 STRESS PERIOD TIME 2.59200E+06  43200.      720.00      30.000     8.21355E-02
         TOTAL TIME 8.82144E+07 1.47024E+06  24504.      1021.0      2.7953    

 OUTPUT CONTROL FOR STRESS PERIOD 36 IS REPEATED USING SETTINGS FROM A PREVIOUS STRESS PERIOD.


 STRESS PERIOD 36 IS TRANSIENT


                 RECHARGE =  0.2739730E-02
 UBDSV1 SAVING           STO-SS ON UNIT   1016 AT TIME STEP      1, STRESS PERIOD     36
 UBDSV1 SAVING           STO-SY ON UNIT   1016 AT TIME STEP      1, STRESS PERIOD     36
 UBDSV1 SAVING     FLOW-JA-FACE ON UNIT   1016 AT TIME STEP      1, STRESS PERIOD     36
 UBDSV06 SAVING              RCH IN MODEL TEST_TRANS       PACKAGE TEST_TRANS      CONNECTED TO MODEL TEST_TRANS       PACKAGE RCHA             ON UNIT   1016 AT TIME STEP      1, STRESS PERIOD     36
 UBDSV06 SAVING              CHD IN MODEL TEST_TRANS       PACKAGE TEST_TRANS      CONNECTED TO MODEL TEST_TRANS       PACKAGE CHD              ON UNIT   1016 AT TIME STEP      1, STRESS PERIOD     36
1
  HEAD IN LAYER   1 AT END OF TIME STEP   1 IN STRESS PERIOD   36
  ---------------------------------------------------------------------------

            1           2           3           4           5           6           7           8           9          10
           11          12          13          14          15          16          17          18          19          20
           21          22          23          24          25          26          27          28          29          30
 ........................................................................................................................
   1    27.76       27.76       27.75       27.73       27.71       27.69       27.66       27.63       27.59       27.54    
        27.49       27.43       27.37       27.30       27.22       27.14       27.04       26.94       26.83       26.71    
        26.58       26.43       26.27       26.09       25.89       25.67       25.40       25.09       24.69       24.06    
   2    27.76       27.76       27.75       27.73       27.71       27.69       27.66       27.63       27.59       27.54    
        27.49       27.43       27.37       27.30       27.22       27.14       27.04       26.94       26.83       26.71    
        26.58       26.43       26.27       26.09       25.89       25.67       25.40       25.09       24.69       24.06    
   3    27.76       27.76       27.75       27.73       27.71       27.69       27.66       27.63       27.59       27.54    
        27.49       27.43       27.37       27.30       27.22       27.14       27.04       26.94       26.83       26.71    
        26.58       26.43       26.27       26.09       25.89       25.67       25.40       25.09       24.69       24.06    
   4    27.76       27.76       27.75       27.73       27.71       27.69       27.66       27.63       27.59       27.54    
        27.49       27.43       27.37       27.30       27.22       27.14       27.04       26.94       26.83       26.71    
        26.58       26.43       26.27       26.09       25.89       25.67       25.40       25.09       24.69       24.06    
   5    27.76       27.76       27.75       27.73       27.71       27.69       27.66       27.63       27.59       27.54    
        27.49       27.43       27.37       27.30       27.22       27.14       27.04       26.94       26.83       26.71    
        26.58       26.43       26.27       26.09       25.89       25.67       25.40       25.09       24.69       24.06    
   6    27.76       27.76       27.75       27.73       27.71       27.69       27.66       27.63       27.59       27.54    
        27.49       27.43       27.37       27.30       27.22       27.14       27.04       26.94       26.83       26.71    
        26.58       26.43       26.27       26.09       25.89       25.67       25.40       25.09       24.69       24.06    
   7    27.76       27.76       27.75       27.73       27.71       27.69       27.66       27.63       27.59       27.54    
        27.49       27.43       27.37       27.30       27.22       27.14       27.04       26.94       26.83       26.71    
        26.58       26.43       26.27       26.09       25.89       25.67       25.40       25.09       24.69       24.06    
   8    27.76       27.76       27.75       27.73       27.71       27.69       27.66       27.63       27.59       27.54    
        27.49       27.43       27.37       27.30       27.22       27.14       27.04       26.94       26.83       26.71    
        26.58       26.43       26.27       26.09       25.89       25.67       25.40       25.09       24.69       24.06    
   9    27.76       27.76       27.75       27.73       27.71       27.69       27.66       27.63       27.59       27.54    
        27.49       27.43       27.37       27.30       27.22       27.14       27.04       26.94       26.83       26.71    
        26.58       26.43       26.27       26.09       25.89       25.67       25.40       25.09       24.69       24.06    
  10    27.76       27.76       27.75       27.73       27.71       27.69       27.66       27.63       27.59       27.54    
        27.49       27.43       27.37       27.30       27.22       27.14       27.04       26.94       26.83       26.71    
        26.58       26.43       26.27       26.09       25.89       25.67       25.40       25.09       24.69       24.06    
  11    27.76       27.76       27.75       27.73       27.71       27.69       27.66       27.63       27.59       27.54    
        27.49       27.43       27.37       27.30       27.22       27.14       27.04       26.94       26.83       26.71    
        26.58       26.43       26.27       26.09       25.89       25.67       25.40       25.09       24.69       24.06    
  12    27.76       27.76       27.75       27.73       27.71       27.69       27.66       27.63       27.59       27.54    
        27.49       27.43       27.37       27.30       27.22       27.14       27.04       26.94       26.83       26.71    
        26.58       26.43       26.27       26.09       25.89       25.67       25.40       25.09       24.69       24.06    
  13    27.76       27.76       27.75       27.73       27.71       27.69       27.66       27.63       27.59       27.54    
        27.49       27.43       27.37       27.30       27.22       27.14       27.04       26.94       26.83       26.71    
        26.58       26.43       26.27       26.09       25.89       25.67       25.40       25.09       24.69       24.06    
  14    27.76       27.76       27.75       27.73       27.71       27.69       27.66       27.63       27.59       27.54    
        27.49       27.43       27.37       27.30       27.22       27.14       27.04       26.94       26.83       26.71    
        26.58       26.43       26.27       26.09       25.89       25.67       25.40       25.09       24.69       24.06    
  15    27.76       27.76       27.75       27.73       27.71       27.69       27.66       27.63       27.59       27.54    
        27.49       27.43       27.37       27.30       27.22       27.14       27.04       26.94       26.83       26.71    
        26.58       26.43       26.27       26.09       25.89       25.67       25.40       25.09       24.69       24.06    
  16    27.76       27.76       27.75       27.73       27.71       27.69       27.66       27.63       27.59       27.54    
        27.49       27.43       27.37       27.30       27.22       27.14       27.04       26.94       26.83       26.71    
        26.58       26.43       26.27       26.09       25.89       25.67       25.40       25.09       24.69       24.06    
  17    27.76       27.76       27.75       27.73       27.71       27.69       27.66       27.63       27.59       27.54    
        27.49       27.43       27.37       27.30       27.22       27.14       27.04       26.94       26.83       26.71    
        26.58       26.43       26.27       26.09       25.89       25.67       25.40       25.09       24.69       24.06    
  18    27.76       27.76       27.75       27.73       27.71       27.69       27.66       27.63       27.59       27.54    
        27.49       27.43       27.37       27.30       27.22       27.14       27.04       26.94       26.83       26.71    
        26.58       26.43       26.27       26.09       25.89       25.67       25.40       25.09       24.69       24.06    
  19    27.76       27.76       27.75       27.73       27.71       27.69       27.66       27.63       27.59       27.54    
        27.49       27.43       27.37       27.30       27.22       27.14       27.04       26.94       26.83       26.71    
        26.58       26.43       26.27       26.09       25.89       25.67       25.40       25.09       24.69       24.06    
  20    27.76       27.76       27.75       27.73       27.71       27.69       27.66       27.63       27.59       27.54    
        27.49       27.43       27.37       27.30       27.22       27.14       27.04       26.94       26.83       26.71    
        26.58       26.43       26.27       26.09       25.89       25.67       25.40       25.09       24.69       24.06    
  21    27.76       27.76       27.75       27.73       27.71       27.69       27.66       27.63       27.59       27.54    
        27.49       27.43       27.37       27.30       27.22       27.14       27.04       26.94       26.83       26.71    
        26.58       26.43       26.27       26.09       25.89       25.67       25.40       25.09       24.69       24.06    
  22    27.76       27.76       27.75       27.73       27.71       27.69       27.66       27.63       27.59       27.54    
        27.49       27.43       27.37       27.30       27.22       27.14       27.04       26.94       26.83       26.71    
        26.58       26.43       26.27       26.09       25.89       25.67       25.40       25.09       24.69       24.06    
  23    27.76       27.76       27.75       27.73       27.71       27.69       27.66       27.63       27.59       27.54    
        27.49       27.43       27.37       27.30       27.22       27.14       27.04       26.94       26.83       26.71    
        26.58       26.43       26.27       26.09       25.89       25.67       25.40       25.09       24.69       24.06    
  24    27.76       27.76       27.75       27.73       27.71       27.69       27.66       27.63       27.59       27.54    
        27.49       27.43       27.37       27.30       27.22       27.14       27.04       26.94       26.83       26.71    
        26.58       26.43       26.27       26.09       25.89       25.67       25.40       25.09       24.69       24.06    
  25    27.76       27.76       27.75       27.73       27.71       27.69       27.66       27.63       27.59       27.54    
        27.49       27.43       27.37       27.30       27.22       27.14       27.04       26.94       26.83       26.71    
        26.58       26.43       26.27       26.09       25.89       25.67       25.40       25.09       24.69       24.06    
  26    27.76       27.76       27.75       27.73       27.71       27.69       27.66       27.63       27.59       27.54    
        27.49       27.43       27.37       27.30       27.22       27.14       27.04       26.94       26.83       26.71    
        26.58       26.43       26.27       26.09       25.89       25.67       25.40       25.09       24.69       24.06    
  27    27.76       27.76       27.75       27.73       27.71       27.69       27.66       27.63       27.59       27.54    
        27.49       27.43       27.37       27.30       27.22       27.14       27.04       26.94       26.83       26.71    
        26.58       26.43       26.27       26.09       25.89       25.67       25.40       25.09       24.69       24.06    
  28    27.76       27.76       27.75       27.73       27.71       27.69       27.66       27.63       27.59       27.54    
        27.49       27.43       27.37       27.30       27.22       27.14       27.04       26.94       26.83       26.71    
        26.58       26.43       26.27       26.09       25.89       25.67       25.40       25.09       24.69       24.06    
  29    27.76       27.76       27.75       27.73       27.71       27.69       27.66       27.63       27.59       27.54    
        27.49       27.43       27.37       27.30       27.22       27.14       27.04       26.94       26.83       26.71    
        26.58       26.43       26.27       26.09       25.89       25.67       25.40       25.09       24.69       24.06    
  30    27.76       27.76       27.75       27.73       27.71       27.69       27.66       27.63       27.59       27.54    
        27.49       27.43       27.37       27.30       27.22       27.14       27.04       26.94       26.83       26.71    
        26.58       26.43       26.27       26.09       25.89       25.67       25.40       25.09       24.69       24.06    

 HEAD WILL BE SAVED ON UNIT 1017 AT END OF TIME STEP    1, STRESS PERIOD   36



         TIME SUMMARY AT END OF TIME STEP    1 IN STRESS PERIOD   36
                    SECONDS     MINUTES      HOURS       DAYS        YEARS
                    -----------------------------------------------------------
   TIME STEP LENGTH 2.59200E+05  4320.0      72.000      3.0000     8.21355E-03
 STRESS PERIOD TIME 2.59200E+05  4320.0      72.000      3.0000     8.21355E-03
         TOTAL TIME 8.84736E+07 1.47456E+06  24576.      1024.0      2.8036    
 UBDSV1 SAVING           STO-SS ON UNIT   1016 AT TIME STEP      2, STRESS PERIOD     36
 UBDSV1 SAVING           STO-SY ON UNIT   1016 AT TIME STEP      2, STRESS PERIOD     36
 UBDSV1 SAVING     FLOW-JA-FACE ON UNIT   1016 AT TIME STEP      2, STRESS PERIOD     36
 UBDSV06 SAVING              RCH IN MODEL TEST_TRANS       PACKAGE TEST_TRANS      CONNECTED TO MODEL TEST_TRANS       PACKAGE RCHA             ON UNIT   1016 AT TIME STEP      2, STRESS PERIOD     36
 UBDSV06 SAVING              CHD IN MODEL TEST_TRANS       PACKAGE TEST_TRANS      CONNECTED TO MODEL TEST_TRANS       PACKAGE CHD              ON UNIT   1016 AT TIME STEP      2, STRESS PERIOD     36

 HEAD WILL BE SAVED ON UNIT 1017 AT END OF TIME STEP    2, STRESS PERIOD   36
 UBDSV1 SAVING           STO-SS ON UNIT   1016 AT TIME STEP      3, STRESS PERIOD     36
 UBDSV1 SAVING           STO-SY ON UNIT   1016 AT TIME STEP      3, STRESS PERIOD     36
 UBDSV1 SAVING     FLOW-JA-FACE ON UNIT   1016 AT TIME STEP      3, STRESS PERIOD     36
 UBDSV06 SAVING              RCH IN MODEL TEST_TRANS       PACKAGE TEST_TRANS      CONNECTED TO MODEL TEST_TRANS       PACKAGE RCHA             ON UNIT   1016 AT TIME STEP      3, STRESS PERIOD     36
 UBDSV06 SAVING              CHD IN MODEL TEST_TRANS       PACKAGE TEST_TRANS      CONNECTED TO MODEL TEST_TRANS       PACKAGE CHD              ON UNIT   1016 AT TIME STEP      3, STRESS PERIOD     36

 HEAD WILL BE SAVED ON UNIT 1017 AT END OF TIME STEP    3, STRESS PERIOD   36
 UBDSV1 SAVING           STO-SS ON UNIT   1016 AT TIME STEP      4, STRESS PERIOD     36
 UBDSV1 SAVING           STO-SY ON UNIT   1016 AT TIME STEP      4, STRESS PERIOD     36
 UBDSV1 SAVING     FLOW-JA-FACE ON UNIT   1016 AT TIME STEP      4, STRESS PERIOD     36
 UBDSV06 SAVING              RCH IN MODEL TEST_TRANS       PACKAGE TEST_TRANS      CONNECTED TO MODEL TEST_TRANS       PACKAGE RCHA             ON UNIT   1016 AT TIME STEP      4, STRESS PERIOD     36
 UBDSV06 SAVING              CHD IN MODEL TEST_TRANS       PACKAGE TEST_TRANS      CONNECTED TO MODEL TEST_TRANS       PACKAGE CHD              ON UNIT   1016 AT TIME STEP      4, STRESS PERIOD     36

 HEAD WILL BE SAVED ON UNIT 1017 AT END OF TIME STEP    4, STRESS PERIOD   36
 UBDSV1 SAVING           STO-SS ON UNIT   1016 AT TIME STEP      5, STRESS PERIOD     36
 UBDSV1 SAVING           STO-SY ON UNIT   1016 AT TIME STEP      5, STRESS PERIOD     36
 UBDSV1 SAVING     FLOW-JA-FACE ON UNIT   1016 AT TIME STEP      5, STRESS PERIOD     36
 UBDSV06 SAVING              RCH IN MODEL TEST_TRANS       PACKAGE TEST_TRANS      CONNECTED TO MODEL TEST_TRANS       PACKAGE RCHA             ON UNIT   1016 AT TIME STEP      5, STRESS PERIOD     36
 UBDSV06 SAVING              CHD IN MODEL TEST_TRANS       PACKAGE TEST_TRANS      CONNECTED TO MODEL TEST_TRANS       PACKAGE CHD              ON UNIT   1016 AT TIME STEP      5, STRESS PERIOD     36

 HEAD WILL BE SAVED ON UNIT 1017 AT END OF TIME STEP    5, STRESS PERIOD   36
 UBDSV1 SAVING           STO-SS ON UNIT   1016 AT TIME STEP      6, STRESS PERIOD     36
 UBDSV1 SAVING           STO-SY ON UNIT   1016 AT TIME STEP      6, STRESS PERIOD     36
 UBDSV1 SAVING     FLOW-JA-FACE ON UNIT   1016 AT TIME STEP      6, STRESS PERIOD     36
 UBDSV06 SAVING              RCH IN MODEL TEST_TRANS       PACKAGE TEST_TRANS      CONNECTED TO MODEL TEST_TRANS       PACKAGE RCHA             ON UNIT   1016 AT TIME STEP      6, STRESS PERIOD     36
 UBDSV06 SAVING              CHD IN MODEL TEST_TRANS       PACKAGE TEST_TRANS      CONNECTED TO MODEL TEST_TRANS       PACKAGE CHD              ON UNIT   1016 AT TIME STEP      6, STRESS PERIOD     36

 HEAD WILL BE SAVED ON UNIT 1017 AT END OF TIME STEP    6, STRESS PERIOD   36
 UBDSV1 SAVING           STO-SS ON UNIT   1016 AT TIME STEP      7, STRESS PERIOD     36
 UBDSV1 SAVING           STO-SY ON UNIT   1016 AT TIME STEP      7, STRESS PERIOD     36
 UBDSV1 SAVING     FLOW-JA-FACE ON UNIT   1016 AT TIME STEP      7, STRESS PERIOD     36
 UBDSV06 SAVING              RCH IN MODEL TEST_TRANS       PACKAGE TEST_TRANS      CONNECTED TO MODEL TEST_TRANS       PACKAGE RCHA             ON UNIT   1016 AT TIME STEP      7, STRESS PERIOD     36
 UBDSV06 SAVING              CHD IN MODEL TEST_TRANS       PACKAGE TEST_TRANS      CONNECTED TO MODEL TEST_TRANS       PACKAGE CHD              ON UNIT   1016 AT TIME STEP      7, STRESS PERIOD     36

 HEAD WILL BE SAVED ON UNIT 1017 AT END OF TIME STEP    7, STRESS PERIOD   36
 UBDSV1 SAVING           STO-SS ON UNIT   1016 AT TIME STEP      8, STRESS PERIOD     36
 UBDSV1 SAVING           STO-SY ON UNIT   1016 AT TIME STEP      8, STRESS PERIOD     36
 UBDSV1 SAVING     FLOW-JA-FACE ON UNIT   1016 AT TIME STEP      8, STRESS PERIOD     36
 UBDSV06 SAVING              RCH IN MODEL TEST_TRANS       PACKAGE TEST_TRANS      CONNECTED TO MODEL TEST_TRANS       PACKAGE RCHA             ON UNIT   1016 AT TIME STEP      8, STRESS PERIOD     36
 UBDSV06 SAVING              CHD IN MODEL TEST_TRANS       PACKAGE TEST_TRANS      CONNECTED TO MODEL TEST_TRANS       PACKAGE CHD              ON UNIT   1016 AT TIME STEP      8, STRESS PERIOD     36

 HEAD WILL BE SAVED ON UNIT 1017 AT END OF TIME STEP    8, STRESS PERIOD   36
 UBDSV1 SAVING           STO-SS ON UNIT   1016 AT TIME STEP      9, STRESS PERIOD     36
 UBDSV1 SAVING           STO-SY ON UNIT   1016 AT TIME STEP      9, STRESS PERIOD     36
 UBDSV1 SAVING     FLOW-JA-FACE ON UNIT   1016 AT TIME STEP      9, STRESS PERIOD     36
 UBDSV06 SAVING              RCH IN MODEL TEST_TRANS       PACKAGE TEST_TRANS      CONNECTED TO MODEL TEST_TRANS       PACKAGE RCHA             ON UNIT   1016 AT TIME STEP      9, STRESS PERIOD     36
 UBDSV06 SAVING              CHD IN MODEL TEST_TRANS       PACKAGE TEST_TRANS      CONNECTED TO MODEL TEST_TRANS       PACKAGE CHD              ON UNIT   1016 AT TIME STEP      9, STRESS PERIOD     36

 HEAD WILL BE SAVED ON UNIT 1017 AT END OF TIME STEP    9, STRESS PERIOD   36
 UBDSV1 SAVING           STO-SS ON UNIT   1016 AT TIME STEP     10, STRESS PERIOD     36
 UBDSV1 SAVING           STO-SY ON UNIT   1016 AT TIME STEP     10, STRESS PERIOD     36
 UBDSV1 SAVING     FLOW-JA-FACE ON UNIT   1016 AT TIME STEP     10, STRESS PERIOD     36
 UBDSV06 SAVING              RCH IN MODEL TEST_TRANS       PACKAGE TEST_TRANS      CONNECTED TO MODEL TEST_TRANS       PACKAGE RCHA             ON UNIT   1016 AT TIME STEP     10, STRESS PERIOD     36
 UBDSV06 SAVING              CHD IN MODEL TEST_TRANS       PACKAGE TEST_TRANS      CONNECTED TO MODEL TEST_TRANS       PACKAGE CHD              ON UNIT   1016 AT TIME STEP     10, STRESS PERIOD     36
1
  HEAD IN LAYER   1 AT END OF TIME STEP  10 IN STRESS PERIOD   36
  ---------------------------------------------------------------------------

            1           2           3           4           5           6           7           8           9          10
           11          12          13          14          15          16          17          18          19          20
           21          22          23          24          25          26          27          28          29          30
 ........................................................................................................................
   1    27.86       27.85       27.84       27.83       27.81       27.78       27.75       27.71       27.67       27.62    
        27.57       27.51       27.44       27.37       27.29       27.20       27.10       27.00       26.88       26.76    
        26.62       26.46       26.30       26.11       25.90       25.66       25.39       25.07       24.66       24.06    
   2    27.86       27.85       27.84       27.83       27.81       27.78       27.75       27.71       27.67       27.62    
        27.57       27.51       27.44       27.37       27.29       27.20       27.10       27.00       26.88       26.76    
        26.62       26.46       26.30       26.11       25.90       25.66       25.39       25.07       24.66       24.06    
   3    27.86       27.85       27.84       27.83       27.81       27.78       27.75       27.71       27.67       27.62    
        27.57       27.51       27.44       27.37       27.29       27.20       27.10       27.00       26.88       26.76    
        26.62       26.46       26.30       26.11       25.90       25.66       25.39       25.07       24.66       24.06    
   4    27.86       27.85       27.84       27.83       27.81       27.78       27.75       27.71       27.67       27.62    
        27.57       27.51       27.44       27.37       27.29       27.20       27.10       27.00       26.88       26.76    
        26.62       26.46       26.30       26.11       25.90       25.66       25.39       25.07       24.66       24.06    
   5    27.86       27.85       27.84       27.83       27.81       27.78       27.75       27.71       27.67       27.62    
        27.57       27.51       27.44       27.37       27.29       27.20       27.10       27.00       26.88       26.76    
        26.62       26.46       26.30       26.11       25.90       25.66       25.39       25.07       24.66       24.06    
   6    27.86       27.85       27.84       27.83       27.81       27.78       27.75       27.71       27.67       27.62    
        27.57       27.51       27.44       27.37       27.29       27.20       27.10       27.00       26.88       26.76    
        26.62       26.46       26.30       26.11       25.90       25.66       25.39       25.07       24.66       24.06    
   7    27.86       27.85       27.84       27.83       27.81       27.78       27.75       27.71       27.67       27.62    
        27.57       27.51       27.44       27.37       27.29       27.20       27.10       27.00       26.88       26.76    
        26.62       26.46       26.30       26.11       25.90       25.66       25.39       25.07       24.66       24.06    
   8    27.86       27.85       27.84       27.83       27.81       27.78       27.75       27.71       27.67       27.62    
        27.57       27.51       27.44       27.37       27.29       27.20       27.10       27.00       26.88       26.76    
        26.62       26.46       26.30       26.11       25.90       25.66       25.39       25.07       24.66       24.06    
   9    27.86       27.85       27.84       27.83       27.81       27.78       27.75       27.71       27.67       27.62    
        27.57       27.51       27.44       27.37       27.29       27.20       27.10       27.00       26.88       26.76    
        26.62       26.46       26.30       26.11       25.90       25.66       25.39       25.07       24.66       24.06    
  10    27.86       27.85       27.84       27.83       27.81       27.78       27.75       27.71       27.67       27.62    
        27.57       27.51       27.44       27.37       27.29       27.20       27.10       27.00       26.88       26.76    
        26.62       26.46       26.30       26.11       25.90       25.66       25.39       25.07       24.66       24.06    
  11    27.86       27.85       27.84       27.83       27.81       27.78       27.75       27.71       27.67       27.62    
        27.57       27.51       27.44       27.37       27.29       27.20       27.10       27.00       26.88       26.76    
        26.62       26.46       26.30       26.11       25.90       25.66       25.39       25.07       24.66       24.06    
  12    27.86       27.85       27.84       27.83       27.81       27.78       27.75       27.71       27.67       27.62    
        27.57       27.51       27.44       27.37       27.29       27.20       27.10       27.00       26.88       26.76    
        26.62       26.46       26.30       26.11       25.90       25.66       25.39       25.07       24.66       24.06    
  13    27.86       27.85       27.84       27.83       27.81       27.78       27.75       27.71       27.67       27.62    
        27.57       27.51       27.44       27.37       27.29       27.20       27.10       27.00       26.88       26.76    
        26.62       26.46       26.30       26.11       25.90       25.66       25.39       25.07       24.66       24.06    
  14    27.86       27.85       27.84       27.83       27.81       27.78       27.75       27.71       27.67       27.62    
        27.57       27.51       27.44       27.37       27.29       27.20       27.10       27.00       26.88       26.76    
        26.62       26.46       26.30       26.11       25.90       25.66       25.39       25.07       24.66       24.06    
  15    27.86       27.85       27.84       27.83       27.81       27.78       27.75       27.71       27.67       27.62    
        27.57       27.51       27.44       27.37       27.29       27.20       27.10       27.00       26.88       26.76    
        26.62       26.46       26.30       26.11       25.90       25.66       25.39       25.07       24.66       24.06    
  16    27.86       27.85       27.84       27.83       27.81       27.78       27.75       27.71       27.67       27.62    
        27.57       27.51       27.44       27.37       27.29       27.20       27.10       27.00       26.88       26.76    
        26.62       26.46       26.30       26.11       25.90       25.66       25.39       25.07       24.66       24.06    
  17    27.86       27.85       27.84       27.83       27.81       27.78       27.75       27.71       27.67       27.62    
        27.57       27.51       27.44       27.37       27.29       27.20       27.10       27.00       26.88       26.76    
        26.62       26.46       26.30       26.11       25.90       25.66       25.39       25.07       24.66       24.06    
  18    27.86       27.85       27.84       27.83       27.81       27.78       27.75       27.71       27.67       27.62    
        27.57       27.51       27.44       27.37       27.29       27.20       27.10       27.00       26.88       26.76    
        26.62       26.46       26.30       26.11       25.90       25.66       25.39       25.07       24.66       24.06    
  19    27.86       27.85       27.84       27.83       27.81       27.78       27.75       27.71       27.67       27.62    
        27.57       27.51       27.44       27.37       27.29       27.20       27.10       27.00       26.88       26.76    
        26.62       26.46       26.30       26.11       25.90       25.66       25.39       25.07       24.66       24.06    
  20    27.86       27.85       27.84       27.83       27.81       27.78       27.75       27.71       27.67       27.62    
        27.57       27.51       27.44       27.37       27.29       27.20       27.10       27.00       26.88       26.76    
        26.62       26.46       26.30       26.11       25.90       25.66       25.39       25.07       24.66       24.06    
  21    27.86       27.85       27.84       27.83       27.81       27.78       27.75       27.71       27.67       27.62    
        27.57       27.51       27.44       27.37       27.29       27.20       27.10       27.00       26.88       26.76    
        26.62       26.46       26.30       26.11       25.90       25.66       25.39       25.07       24.66       24.06    
  22    27.86       27.85       27.84       27.83       27.81       27.78       27.75       27.71       27.67       27.62    
        27.57       27.51       27.44       27.37       27.29       27.20       27.10       27.00       26.88       26.76    
        26.62       26.46       26.30       26.11       25.90       25.66       25.39       25.07       24.66       24.06    
  23    27.86       27.85       27.84       27.83       27.81       27.78       27.75       27.71       27.67       27.62    
        27.57       27.51       27.44       27.37       27.29       27.20       27.10       27.00       26.88       26.76    
        26.62       26.46       26.30       26.11       25.90       25.66       25.39       25.07       24.66       24.06    
  24    27.86       27.85       27.84       27.83       27.81       27.78       27.75       27.71       27.67       27.62    
        27.57       27.51       27.44       27.37       27.29       27.20       27.10       27.00       26.88       26.76    
        26.62       26.46       26.30       26.11       25.90       25.66       25.39       25.07       24.66       24.06    
  25    27.86       27.85       27.84       27.83       27.81       27.78       27.75       27.71       27.67       27.62    
        27.57       27.51       27.44       27.37       27.29       27.20       27.10       27.00       26.88       26.76    
        26.62       26.46       26.30       26.11       25.90       25.66       25.39       25.07       24.66       24.06    
  26    27.86       27.85       27.84       27.83       27.81       27.78       27.75       27.71       27.67       27.62    
        27.57       27.51       27.44       27.37       27.29       27.20       27.10       27.00       26.88       26.76    
        26.62       26.46       26.30       26.11       25.90       25.66       25.39       25.07       24.66       24.06    
  27    27.86       27.85       27.84       27.83       27.81       27.78       27.75       27.71       27.67       27.62    
        27.57       27.51       27.44       27.37       27.29       27.20       27.10       27.00       26.88       26.76    
        26.62       26.46       26.30       26.11       25.90       25.66       25.39       25.07       24.66       24.06    
  28    27.86       27.85       27.84       27.83       27.81       27.78       27.75       27.71       27.67       27.62    
        27.57       27.51       27.44       27.37       27.29       27.20       27.10       27.00       26.88       26.76    
        26.62       26.46       26.30       26.11       25.90       25.66       25.39       25.07       24.66       24.06    
  29    27.86       27.85       27.84       27.83       27.81       27.78       27.75       27.71       27.67       27.62    
        27.57       27.51       27.44       27.37       27.29       27.20       27.10       27.00       26.88       26.76    
        26.62       26.46       26.30       26.11       25.90       25.66       25.39       25.07       24.66       24.06    
  30    27.86       27.85       27.84       27.83       27.81       27.78       27.75       27.71       27.67       27.62    
        27.57       27.51       27.44       27.37       27.29       27.20       27.10       27.00       26.88       26.76    
        26.62       26.46       26.30       26.11       25.90       25.66       25.39       25.07       24.66       24.06    

 HEAD WILL BE SAVED ON UNIT 1017 AT END OF TIME STEP   10, STRESS PERIOD   36


  VOLUME BUDGET FOR ENTIRE MODEL AT END OF TIME STEP   10, STRESS PERIOD  36
  ---------------------------------------------------------------------------------------------------

     CUMULATIVE VOLUME      L**3       RATES FOR THIS TIME STEP      L**3/T          PACKAGE NAME    
     ------------------                 ------------------------                     ----------------

           IN:                                      IN:
           ---                                      ---
              STO-SS =          60.2541                STO-SS =           0.0000     STORAGE         
              STO-SY =       38982.3415                STO-SY =           0.0000     STORAGE         
                 RCH =      172212.4024                   RCH =         238.3565     RCHA            
                 CHD =        3520.9028                   CHD =           0.0000     CHD             

            TOTAL IN =      214775.9007              TOTAL IN =         238.3565

          OUT:                                     OUT:
          ----                                     ----
              STO-SS =          47.6568                STO-SS =       5.7454E-02     STORAGE         
              STO-SY =       31060.5213                STO-SY =          36.2141     STORAGE         
                 RCH =           0.0000                   RCH =           0.0000     RCHA            
                 CHD =      183667.1564                   CHD =         202.0876     CHD             

           TOTAL OUT =      214775.3344             TOTAL OUT =         238.3592

            IN - OUT =           0.5664              IN - OUT =      -2.6964E-03

 PERCENT DISCREPANCY =           0.00     PERCENT DISCREPANCY =          -0.00




         TIME SUMMARY AT END OF TIME STEP   10 IN STRESS PERIOD   36
                    SECONDS     MINUTES      HOURS       DAYS        YEARS
                    -----------------------------------------------------------
   TIME STEP LENGTH 2.59200E+05  4320.0      72.000      3.0000     8.21355E-03
 STRESS PERIOD TIME 2.59200E+06  43200.      720.00      30.000     8.21355E-02
         TOTAL TIME 9.08064E+07 1.51344E+06  25224.      1051.0      2.8775    

 OUTPUT CONTROL FOR STRESS PERIOD 37 IS REPEATED USING SETTINGS FROM A PREVIOUS STRESS PERIOD.


 STRESS PERIOD 37 IS TRANSIENT


                 RECHARGE =  0.2739730E-02
 UBDSV1 SAVING           STO-SS ON UNIT   1016 AT TIME STEP      1, STRESS PERIOD     37
 UBDSV1 SAVING           STO-SY ON UNIT   1016 AT TIME STEP      1, STRESS PERIOD     37
 UBDSV1 SAVING     FLOW-JA-FACE ON UNIT   1016 AT TIME STEP      1, STRESS PERIOD     37
 UBDSV06 SAVING              RCH IN MODEL TEST_TRANS       PACKAGE TEST_TRANS      CONNECTED TO MODEL TEST_TRANS       PACKAGE RCHA             ON UNIT   1016 AT TIME STEP      1, STRESS PERIOD     37
 UBDSV06 SAVING              CHD IN MODEL TEST_TRANS       PACKAGE TEST_TRANS      CONNECTED TO MODEL TEST_TRANS       PACKAGE CHD              ON UNIT   1016 AT TIME STEP      1, STRESS PERIOD     37
1
  HEAD IN LAYER   1 AT END OF TIME STEP   1 IN STRESS PERIOD   37
  ---------------------------------------------------------------------------

            1           2           3           4           5           6           7           8           9          10
           11          12          13          14          15          16          17          18          19          20
           21          22          23          24          25          26          27          28          29          30
 ........................................................................................................................
   1    27.87       27.86       27.85       27.84       27.82       27.79       27.76       27.72       27.68       27.63    
        27.58       27.52       27.45       27.38       27.30       27.21       27.11       27.00       26.89       26.76    
        26.62       26.47       26.30       26.12       25.91       25.68       25.41       25.11       24.75       24.32    
   2    27.87       27.86       27.85       27.84       27.82       27.79       27.76       27.72       27.68       27.63    
        27.58       27.52       27.45       27.38       27.30       27.21       27.11       27.00       26.89       26.76    
        26.62       26.47       26.30       26.12       25.91       25.68       25.41       25.11       24.75       24.32    
   3    27.87       27.86       27.85       27.84       27.82       27.79       27.76       27.72       27.68       27.63    
        27.58       27.52       27.45       27.38       27.30       27.21       27.11       27.00       26.89       26.76    
        26.62       26.47       26.30       26.12       25.91       25.68       25.41       25.11       24.75       24.32    
   4    27.87       27.86       27.85       27.84       27.82       27.79       27.76       27.72       27.68       27.63    
        27.58       27.52       27.45       27.38       27.30       27.21       27.11       27.00       26.89       26.76    
        26.62       26.47       26.30       26.12       25.91       25.68       25.41       25.11       24.75       24.32    
   5    27.87       27.86       27.85       27.84       27.82       27.79       27.76       27.72       27.68       27.63    
        27.58       27.52       27.45       27.38       27.30       27.21       27.11       27.00       26.89       26.76    
        26.62       26.47       26.30       26.12       25.91       25.68       25.41       25.11       24.75       24.32    
   6    27.87       27.86       27.85       27.84       27.82       27.79       27.76       27.72       27.68       27.63    
        27.58       27.52       27.45       27.38       27.30       27.21       27.11       27.00       26.89       26.76    
        26.62       26.47       26.30       26.12       25.91       25.68       25.41       25.11       24.75       24.32    
   7    27.87       27.86       27.85       27.84       27.82       27.79       27.76       27.72       27.68       27.63    
        27.58       27.52       27.45       27.38       27.30       27.21       27.11       27.00       26.89       26.76    
        26.62       26.47       26.30       26.12       25.91       25.68       25.41       25.11       24.75       24.32    
   8    27.87       27.86       27.85       27.84       27.82       27.79       27.76       27.72       27.68       27.63    
        27.58       27.52       27.45       27.38       27.30       27.21       27.11       27.00       26.89       26.76    
        26.62       26.47       26.30       26.12       25.91       25.68       25.41       25.11       24.75       24.32    
   9    27.87       27.86       27.85       27.84       27.82       27.79       27.76       27.72       27.68       27.63    
        27.58       27.52       27.45       27.38       27.30       27.21       27.11       27.00       26.89       26.76    
        26.62       26.47       26.30       26.12       25.91       25.68       25.41       25.11       24.75       24.32    
  10    27.87       27.86       27.85       27.84       27.82       27.79       27.76       27.72       27.68       27.63    
        27.58       27.52       27.45       27.38       27.30       27.21       27.11       27.00       26.89       26.76    
        26.62       26.47       26.30       26.12       25.91       25.68       25.41       25.11       24.75       24.32    
  11    27.87       27.86       27.85       27.84       27.82       27.79       27.76       27.72       27.68       27.63    
        27.58       27.52       27.45       27.38       27.30       27.21       27.11       27.00       26.89       26.76    
        26.62       26.47       26.30       26.12       25.91       25.68       25.41       25.11       24.75       24.32    
  12    27.87       27.86       27.85       27.84       27.82       27.79       27.76       27.72       27.68       27.63    
        27.58       27.52       27.45       27.38       27.30       27.21       27.11       27.00       26.89       26.76    
        26.62       26.47       26.30       26.12       25.91       25.68       25.41       25.11       24.75       24.32    
  13    27.87       27.86       27.85       27.84       27.82       27.79       27.76       27.72       27.68       27.63    
        27.58       27.52       27.45       27.38       27.30       27.21       27.11       27.00       26.89       26.76    
        26.62       26.47       26.30       26.12       25.91       25.68       25.41       25.11       24.75       24.32    
  14    27.87       27.86       27.85       27.84       27.82       27.79       27.76       27.72       27.68       27.63    
        27.58       27.52       27.45       27.38       27.30       27.21       27.11       27.00       26.89       26.76    
        26.62       26.47       26.30       26.12       25.91       25.68       25.41       25.11       24.75       24.32    
  15    27.87       27.86       27.85       27.84       27.82       27.79       27.76       27.72       27.68       27.63    
        27.58       27.52       27.45       27.38       27.30       27.21       27.11       27.00       26.89       26.76    
        26.62       26.47       26.30       26.12       25.91       25.68       25.41       25.11       24.75       24.32    
  16    27.87       27.86       27.85       27.84       27.82       27.79       27.76       27.72       27.68       27.63    
        27.58       27.52       27.45       27.38       27.30       27.21       27.11       27.00       26.89       26.76    
        26.62       26.47       26.30       26.12       25.91       25.68       25.41       25.11       24.75       24.32    
  17    27.87       27.86       27.85       27.84       27.82       27.79       27.76       27.72       27.68       27.63    
        27.58       27.52       27.45       27.38       27.30       27.21       27.11       27.00       26.89       26.76    
        26.62       26.47       26.30       26.12       25.91       25.68       25.41       25.11       24.75       24.32    
  18    27.87       27.86       27.85       27.84       27.82       27.79       27.76       27.72       27.68       27.63    
        27.58       27.52       27.45       27.38       27.30       27.21       27.11       27.00       26.89       26.76    
        26.62       26.47       26.30       26.12       25.91       25.68       25.41       25.11       24.75       24.32    
  19    27.87       27.86       27.85       27.84       27.82       27.79       27.76       27.72       27.68       27.63    
        27.58       27.52       27.45       27.38       27.30       27.21       27.11       27.00       26.89       26.76    
        26.62       26.47       26.30       26.12       25.91       25.68       25.41       25.11       24.75       24.32    
  20    27.87       27.86       27.85       27.84       27.82       27.79       27.76       27.72       27.68       27.63    
        27.58       27.52       27.45       27.38       27.30       27.21       27.11       27.00       26.89       26.76    
        26.62       26.47       26.30       26.12       25.91       25.68       25.41       25.11       24.75       24.32    
  21    27.87       27.86       27.85       27.84       27.82       27.79       27.76       27.72       27.68       27.63    
        27.58       27.52       27.45       27.38       27.30       27.21       27.11       27.00       26.89       26.76    
        26.62       26.47       26.30       26.12       25.91       25.68       25.41       25.11       24.75       24.32    
  22    27.87       27.86       27.85       27.84       27.82       27.79       27.76       27.72       27.68       27.63    
        27.58       27.52       27.45       27.38       27.30       27.21       27.11       27.00       26.89       26.76    
        26.62       26.47       26.30       26.12       25.91       25.68       25.41       25.11       24.75       24.32    
  23    27.87       27.86       27.85       27.84       27.82       27.79       27.76       27.72       27.68       27.63    
        27.58       27.52       27.45       27.38       27.30       27.21       27.11       27.00       26.89       26.76    
        26.62       26.47       26.30       26.12       25.91       25.68       25.41       25.11       24.75       24.32    
  24    27.87       27.86       27.85       27.84       27.82       27.79       27.76       27.72       27.68       27.63    
        27.58       27.52       27.45       27.38       27.30       27.21       27.11       27.00       26.89       26.76    
        26.62       26.47       26.30       26.12       25.91       25.68       25.41       25.11       24.75       24.32    
  25    27.87       27.86       27.85       27.84       27.82       27.79       27.76       27.72       27.68       27.63    
        27.58       27.52       27.45       27.38       27.30       27.21       27.11       27.00       26.89       26.76    
        26.62       26.47       26.30       26.12       25.91       25.68       25.41       25.11       24.75       24.32    
  26    27.87       27.86       27.85       27.84       27.82       27.79       27.76       27.72       27.68       27.63    
        27.58       27.52       27.45       27.38       27.30       27.21       27.11       27.00       26.89       26.76    
        26.62       26.47       26.30       26.12       25.91       25.68       25.41       25.11       24.75       24.32    
  27    27.87       27.86       27.85       27.84       27.82       27.79       27.76       27.72       27.68       27.63    
        27.58       27.52       27.45       27.38       27.30       27.21       27.11       27.00       26.89       26.76    
        26.62       26.47       26.30       26.12       25.91       25.68       25.41       25.11       24.75       24.32    
  28    27.87       27.86       27.85       27.84       27.82       27.79       27.76       27.72       27.68       27.63    
        27.58       27.52       27.45       27.38       27.30       27.21       27.11       27.00       26.89       26.76    
        26.62       26.47       26.30       26.12       25.91       25.68       25.41       25.11       24.75       24.32    
  29    27.87       27.86       27.85       27.84       27.82       27.79       27.76       27.72       27.68       27.63    
        27.58       27.52       27.45       27.38       27.30       27.21       27.11       27.00       26.89       26.76    
        26.62       26.47       26.30       26.12       25.91       25.68       25.41       25.11       24.75       24.32    
  30    27.87       27.86       27.85       27.84       27.82       27.79       27.76       27.72       27.68       27.63    
        27.58       27.52       27.45       27.38       27.30       27.21       27.11       27.00       26.89       26.76    
        26.62       26.47       26.30       26.12       25.91       25.68       25.41       25.11       24.75       24.32    

 HEAD WILL BE SAVED ON UNIT 1017 AT END OF TIME STEP    1, STRESS PERIOD   37



         TIME SUMMARY AT END OF TIME STEP    1 IN STRESS PERIOD   37
                    SECONDS     MINUTES      HOURS       DAYS        YEARS
                    -----------------------------------------------------------
   TIME STEP LENGTH 2.59200E+05  4320.0      72.000      3.0000     8.21355E-03
 STRESS PERIOD TIME 2.59200E+05  4320.0      72.000      3.0000     8.21355E-03
         TOTAL TIME 9.10656E+07 1.51776E+06  25296.      1054.0      2.8857    
 UBDSV1 SAVING           STO-SS ON UNIT   1016 AT TIME STEP      2, STRESS PERIOD     37
 UBDSV1 SAVING           STO-SY ON UNIT   1016 AT TIME STEP      2, STRESS PERIOD     37
 UBDSV1 SAVING     FLOW-JA-FACE ON UNIT   1016 AT TIME STEP      2, STRESS PERIOD     37
 UBDSV06 SAVING              RCH IN MODEL TEST_TRANS       PACKAGE TEST_TRANS      CONNECTED TO MODEL TEST_TRANS       PACKAGE RCHA             ON UNIT   1016 AT TIME STEP      2, STRESS PERIOD     37
 UBDSV06 SAVING              CHD IN MODEL TEST_TRANS       PACKAGE TEST_TRANS      CONNECTED TO MODEL TEST_TRANS       PACKAGE CHD              ON UNIT   1016 AT TIME STEP      2, STRESS PERIOD     37

 HEAD WILL BE SAVED ON UNIT 1017 AT END OF TIME STEP    2, STRESS PERIOD   37
 UBDSV1 SAVING           STO-SS ON UNIT   1016 AT TIME STEP      3, STRESS PERIOD     37
 UBDSV1 SAVING           STO-SY ON UNIT   1016 AT TIME STEP      3, STRESS PERIOD     37
 UBDSV1 SAVING     FLOW-JA-FACE ON UNIT   1016 AT TIME STEP      3, STRESS PERIOD     37
 UBDSV06 SAVING              RCH IN MODEL TEST_TRANS       PACKAGE TEST_TRANS      CONNECTED TO MODEL TEST_TRANS       PACKAGE RCHA             ON UNIT   1016 AT TIME STEP      3, STRESS PERIOD     37
 UBDSV06 SAVING              CHD IN MODEL TEST_TRANS       PACKAGE TEST_TRANS      CONNECTED TO MODEL TEST_TRANS       PACKAGE CHD              ON UNIT   1016 AT TIME STEP      3, STRESS PERIOD     37

 HEAD WILL BE SAVED ON UNIT 1017 AT END OF TIME STEP    3, STRESS PERIOD   37
 UBDSV1 SAVING           STO-SS ON UNIT   1016 AT TIME STEP      4, STRESS PERIOD     37
 UBDSV1 SAVING           STO-SY ON UNIT   1016 AT TIME STEP      4, STRESS PERIOD     37
 UBDSV1 SAVING     FLOW-JA-FACE ON UNIT   1016 AT TIME STEP      4, STRESS PERIOD     37
 UBDSV06 SAVING              RCH IN MODEL TEST_TRANS       PACKAGE TEST_TRANS      CONNECTED TO MODEL TEST_TRANS       PACKAGE RCHA             ON UNIT   1016 AT TIME STEP      4, STRESS PERIOD     37
 UBDSV06 SAVING              CHD IN MODEL TEST_TRANS       PACKAGE TEST_TRANS      CONNECTED TO MODEL TEST_TRANS       PACKAGE CHD              ON UNIT   1016 AT TIME STEP      4, STRESS PERIOD     37

 HEAD WILL BE SAVED ON UNIT 1017 AT END OF TIME STEP    4, STRESS PERIOD   37
 UBDSV1 SAVING           STO-SS ON UNIT   1016 AT TIME STEP      5, STRESS PERIOD     37
 UBDSV1 SAVING           STO-SY ON UNIT   1016 AT TIME STEP      5, STRESS PERIOD     37
 UBDSV1 SAVING     FLOW-JA-FACE ON UNIT   1016 AT TIME STEP      5, STRESS PERIOD     37
 UBDSV06 SAVING              RCH IN MODEL TEST_TRANS       PACKAGE TEST_TRANS      CONNECTED TO MODEL TEST_TRANS       PACKAGE RCHA             ON UNIT   1016 AT TIME STEP      5, STRESS PERIOD     37
 UBDSV06 SAVING              CHD IN MODEL TEST_TRANS       PACKAGE TEST_TRANS      CONNECTED TO MODEL TEST_TRANS       PACKAGE CHD              ON UNIT   1016 AT TIME STEP      5, STRESS PERIOD     37

 HEAD WILL BE SAVED ON UNIT 1017 AT END OF TIME STEP    5, STRESS PERIOD   37
 UBDSV1 SAVING           STO-SS ON UNIT   1016 AT TIME STEP      6, STRESS PERIOD     37
 UBDSV1 SAVING           STO-SY ON UNIT   1016 AT TIME STEP      6, STRESS PERIOD     37
 UBDSV1 SAVING     FLOW-JA-FACE ON UNIT   1016 AT TIME STEP      6, STRESS PERIOD     37
 UBDSV06 SAVING              RCH IN MODEL TEST_TRANS       PACKAGE TEST_TRANS      CONNECTED TO MODEL TEST_TRANS       PACKAGE RCHA             ON UNIT   1016 AT TIME STEP      6, STRESS PERIOD     37
 UBDSV06 SAVING              CHD IN MODEL TEST_TRANS       PACKAGE TEST_TRANS      CONNECTED TO MODEL TEST_TRANS       PACKAGE CHD              ON UNIT   1016 AT TIME STEP      6, STRESS PERIOD     37

 HEAD WILL BE SAVED ON UNIT 1017 AT END OF TIME STEP    6, STRESS PERIOD   37
 UBDSV1 SAVING           STO-SS ON UNIT   1016 AT TIME STEP      7, STRESS PERIOD     37
 UBDSV1 SAVING           STO-SY ON UNIT   1016 AT TIME STEP      7, STRESS PERIOD     37
 UBDSV1 SAVING     FLOW-JA-FACE ON UNIT   1016 AT TIME STEP      7, STRESS PERIOD     37
 UBDSV06 SAVING              RCH IN MODEL TEST_TRANS       PACKAGE TEST_TRANS      CONNECTED TO MODEL TEST_TRANS       PACKAGE RCHA             ON UNIT   1016 AT TIME STEP      7, STRESS PERIOD     37
 UBDSV06 SAVING              CHD IN MODEL TEST_TRANS       PACKAGE TEST_TRANS      CONNECTED TO MODEL TEST_TRANS       PACKAGE CHD              ON UNIT   1016 AT TIME STEP      7, STRESS PERIOD     37

 HEAD WILL BE SAVED ON UNIT 1017 AT END OF TIME STEP    7, STRESS PERIOD   37
 UBDSV1 SAVING           STO-SS ON UNIT   1016 AT TIME STEP      8, STRESS PERIOD     37
 UBDSV1 SAVING           STO-SY ON UNIT   1016 AT TIME STEP      8, STRESS PERIOD     37
 UBDSV1 SAVING     FLOW-JA-FACE ON UNIT   1016 AT TIME STEP      8, STRESS PERIOD     37
 UBDSV06 SAVING              RCH IN MODEL TEST_TRANS       PACKAGE TEST_TRANS      CONNECTED TO MODEL TEST_TRANS       PACKAGE RCHA             ON UNIT   1016 AT TIME STEP      8, STRESS PERIOD     37
 UBDSV06 SAVING              CHD IN MODEL TEST_TRANS       PACKAGE TEST_TRANS      CONNECTED TO MODEL TEST_TRANS       PACKAGE CHD              ON UNIT   1016 AT TIME STEP      8, STRESS PERIOD     37

 HEAD WILL BE SAVED ON UNIT 1017 AT END OF TIME STEP    8, STRESS PERIOD   37
 UBDSV1 SAVING           STO-SS ON UNIT   1016 AT TIME STEP      9, STRESS PERIOD     37
 UBDSV1 SAVING           STO-SY ON UNIT   1016 AT TIME STEP      9, STRESS PERIOD     37
 UBDSV1 SAVING     FLOW-JA-FACE ON UNIT   1016 AT TIME STEP      9, STRESS PERIOD     37
 UBDSV06 SAVING              RCH IN MODEL TEST_TRANS       PACKAGE TEST_TRANS      CONNECTED TO MODEL TEST_TRANS       PACKAGE RCHA             ON UNIT   1016 AT TIME STEP      9, STRESS PERIOD     37
 UBDSV06 SAVING              CHD IN MODEL TEST_TRANS       PACKAGE TEST_TRANS      CONNECTED TO MODEL TEST_TRANS       PACKAGE CHD              ON UNIT   1016 AT TIME STEP      9, STRESS PERIOD     37

 HEAD WILL BE SAVED ON UNIT 1017 AT END OF TIME STEP    9, STRESS PERIOD   37
 UBDSV1 SAVING           STO-SS ON UNIT   1016 AT TIME STEP     10, STRESS PERIOD     37
 UBDSV1 SAVING           STO-SY ON UNIT   1016 AT TIME STEP     10, STRESS PERIOD     37
 UBDSV1 SAVING     FLOW-JA-FACE ON UNIT   1016 AT TIME STEP     10, STRESS PERIOD     37
 UBDSV06 SAVING              RCH IN MODEL TEST_TRANS       PACKAGE TEST_TRANS      CONNECTED TO MODEL TEST_TRANS       PACKAGE RCHA             ON UNIT   1016 AT TIME STEP     10, STRESS PERIOD     37
 UBDSV06 SAVING              CHD IN MODEL TEST_TRANS       PACKAGE TEST_TRANS      CONNECTED TO MODEL TEST_TRANS       PACKAGE CHD              ON UNIT   1016 AT TIME STEP     10, STRESS PERIOD     37
1
  HEAD IN LAYER   1 AT END OF TIME STEP  10 IN STRESS PERIOD   37
  ---------------------------------------------------------------------------

            1           2           3           4           5           6           7           8           9          10
           11          12          13          14          15          16          17          18          19          20
           21          22          23          24          25          26          27          28          29          30
 ........................................................................................................................
   1    27.94       27.94       27.93       27.91       27.89       27.86       27.83       27.79       27.75       27.70    
        27.65       27.59       27.52       27.44       27.36       27.27       27.17       27.07       26.95       26.83    
        26.69       26.54       26.37       26.19       25.98       25.76       25.50       25.19       24.82       24.32    
   2    27.94       27.94       27.93       27.91       27.89       27.86       27.83       27.79       27.75       27.70    
        27.65       27.59       27.52       27.44       27.36       27.27       27.17       27.07       26.95       26.83    
        26.69       26.54       26.37       26.19       25.98       25.76       25.50       25.19       24.82       24.32    
   3    27.94       27.94       27.93       27.91       27.89       27.86       27.83       27.79       27.75       27.70    
        27.65       27.59       27.52       27.44       27.36       27.27       27.17       27.07       26.95       26.83    
        26.69       26.54       26.37       26.19       25.98       25.76       25.50       25.19       24.82       24.32    
   4    27.94       27.94       27.93       27.91       27.89       27.86       27.83       27.79       27.75       27.70    
        27.65       27.59       27.52       27.44       27.36       27.27       27.17       27.07       26.95       26.83    
        26.69       26.54       26.37       26.19       25.98       25.76       25.50       25.19       24.82       24.32    
   5    27.94       27.94       27.93       27.91       27.89       27.86       27.83       27.79       27.75       27.70    
        27.65       27.59       27.52       27.44       27.36       27.27       27.17       27.07       26.95       26.83    
        26.69       26.54       26.37       26.19       25.98       25.76       25.50       25.19       24.82       24.32    
   6    27.94       27.94       27.93       27.91       27.89       27.86       27.83       27.79       27.75       27.70    
        27.65       27.59       27.52       27.44       27.36       27.27       27.17       27.07       26.95       26.83    
        26.69       26.54       26.37       26.19       25.98       25.76       25.50       25.19       24.82       24.32    
   7    27.94       27.94       27.93       27.91       27.89       27.86       27.83       27.79       27.75       27.70    
        27.65       27.59       27.52       27.44       27.36       27.27       27.17       27.07       26.95       26.83    
        26.69       26.54       26.37       26.19       25.98       25.76       25.50       25.19       24.82       24.32    
   8    27.94       27.94       27.93       27.91       27.89       27.86       27.83       27.79       27.75       27.70    
        27.65       27.59       27.52       27.44       27.36       27.27       27.17       27.07       26.95       26.83    
        26.69       26.54       26.37       26.19       25.98       25.76       25.50       25.19       24.82       24.32    
   9    27.94       27.94       27.93       27.91       27.89       27.86       27.83       27.79       27.75       27.70    
        27.65       27.59       27.52       27.44       27.36       27.27       27.17       27.07       26.95       26.83    
        26.69       26.54       26.37       26.19       25.98       25.76       25.50       25.19       24.82       24.32    
  10    27.94       27.94       27.93       27.91       27.89       27.86       27.83       27.79       27.75       27.70    
        27.65       27.59       27.52       27.44       27.36       27.27       27.17       27.07       26.95       26.83    
        26.69       26.54       26.37       26.19       25.98       25.76       25.50       25.19       24.82       24.32    
  11    27.94       27.94       27.93       27.91       27.89       27.86       27.83       27.79       27.75       27.70    
        27.65       27.59       27.52       27.44       27.36       27.27       27.17       27.07       26.95       26.83    
        26.69       26.54       26.37       26.19       25.98       25.76       25.50       25.19       24.82       24.32    
  12    27.94       27.94       27.93       27.91       27.89       27.86       27.83       27.79       27.75       27.70    
        27.65       27.59       27.52       27.44       27.36       27.27       27.17       27.07       26.95       26.83    
        26.69       26.54       26.37       26.19       25.98       25.76       25.50       25.19       24.82       24.32    
  13    27.94       27.94       27.93       27.91       27.89       27.86       27.83       27.79       27.75       27.70    
        27.65       27.59       27.52       27.44       27.36       27.27       27.17       27.07       26.95       26.83    
        26.69       26.54       26.37       26.19       25.98       25.76       25.50       25.19       24.82       24.32    
  14    27.94       27.94       27.93       27.91       27.89       27.86       27.83       27.79       27.75       27.70    
        27.65       27.59       27.52       27.44       27.36       27.27       27.17       27.07       26.95       26.83    
        26.69       26.54       26.37       26.19       25.98       25.76       25.50       25.19       24.82       24.32    
  15    27.94       27.94       27.93       27.91       27.89       27.86       27.83       27.79       27.75       27.70    
        27.65       27.59       27.52       27.44       27.36       27.27       27.17       27.07       26.95       26.83    
        26.69       26.54       26.37       26.19       25.98       25.76       25.50       25.19       24.82       24.32    
  16    27.94       27.94       27.93       27.91       27.89       27.86       27.83       27.79       27.75       27.70    
        27.65       27.59       27.52       27.44       27.36       27.27       27.17       27.07       26.95       26.83    
        26.69       26.54       26.37       26.19       25.98       25.76       25.50       25.19       24.82       24.32    
  17    27.94       27.94       27.93       27.91       27.89       27.86       27.83       27.79       27.75       27.70    
        27.65       27.59       27.52       27.44       27.36       27.27       27.17       27.07       26.95       26.83    
        26.69       26.54       26.37       26.19       25.98       25.76       25.50       25.19       24.82       24.32    
  18    27.94       27.94       27.93       27.91       27.89       27.86       27.83       27.79       27.75       27.70    
        27.65       27.59       27.52       27.44       27.36       27.27       27.17       27.07       26.95       26.83    
        26.69       26.54       26.37       26.19       25.98       25.76       25.50       25.19       24.82       24.32    
  19    27.94       27.94       27.93       27.91       27.89       27.86       27.83       27.79       27.75       27.70    
        27.65       27.59       27.52       27.44       27.36       27.27       27.17       27.07       26.95       26.83    
        26.69       26.54       26.37       26.19       25.98       25.76       25.50       25.19       24.82       24.32    
  20    27.94       27.94       27.93       27.91       27.89       27.86       27.83       27.79       27.75       27.70    
        27.65       27.59       27.52       27.44       27.36       27.27       27.17       27.07       26.95       26.83    
        26.69       26.54       26.37       26.19       25.98       25.76       25.50       25.19       24.82       24.32    
  21    27.94       27.94       27.93       27.91       27.89       27.86       27.83       27.79       27.75       27.70    
        27.65       27.59       27.52       27.44       27.36       27.27       27.17       27.07       26.95       26.83    
        26.69       26.54       26.37       26.19       25.98       25.76       25.50       25.19       24.82       24.32    
  22    27.94       27.94       27.93       27.91       27.89       27.86       27.83       27.79       27.75       27.70    
        27.65       27.59       27.52       27.44       27.36       27.27       27.17       27.07       26.95       26.83    
        26.69       26.54       26.37       26.19       25.98       25.76       25.50       25.19       24.82       24.32    
  23    27.94       27.94       27.93       27.91       27.89       27.86       27.83       27.79       27.75       27.70    
        27.65       27.59       27.52       27.44       27.36       27.27       27.17       27.07       26.95       26.83    
        26.69       26.54       26.37       26.19       25.98       25.76       25.50       25.19       24.82       24.32    
  24    27.94       27.94       27.93       27.91       27.89       27.86       27.83       27.79       27.75       27.70    
        27.65       27.59       27.52       27.44       27.36       27.27       27.17       27.07       26.95       26.83    
        26.69       26.54       26.37       26.19       25.98       25.76       25.50       25.19       24.82       24.32    
  25    27.94       27.94       27.93       27.91       27.89       27.86       27.83       27.79       27.75       27.70    
        27.65       27.59       27.52       27.44       27.36       27.27       27.17       27.07       26.95       26.83    
        26.69       26.54       26.37       26.19       25.98       25.76       25.50       25.19       24.82       24.32    
  26    27.94       27.94       27.93       27.91       27.89       27.86       27.83       27.79       27.75       27.70    
        27.65       27.59       27.52       27.44       27.36       27.27       27.17       27.07       26.95       26.83    
        26.69       26.54       26.37       26.19       25.98       25.76       25.50       25.19       24.82       24.32    
  27    27.94       27.94       27.93       27.91       27.89       27.86       27.83       27.79       27.75       27.70    
        27.65       27.59       27.52       27.44       27.36       27.27       27.17       27.07       26.95       26.83    
        26.69       26.54       26.37       26.19       25.98       25.76       25.50       25.19       24.82       24.32    
  28    27.94       27.94       27.93       27.91       27.89       27.86       27.83       27.79       27.75       27.70    
        27.65       27.59       27.52       27.44       27.36       27.27       27.17       27.07       26.95       26.83    
        26.69       26.54       26.37       26.19       25.98       25.76       25.50       25.19       24.82       24.32    
  29    27.94       27.94       27.93       27.91       27.89       27.86       27.83       27.79       27.75       27.70    
        27.65       27.59       27.52       27.44       27.36       27.27       27.17       27.07       26.95       26.83    
        26.69       26.54       26.37       26.19       25.98       25.76       25.50       25.19       24.82       24.32    
  30    27.94       27.94       27.93       27.91       27.89       27.86       27.83       27.79       27.75       27.70    
        27.65       27.59       27.52       27.44       27.36       27.27       27.17       27.07       26.95       26.83    
        26.69       26.54       26.37       26.19       25.98       25.76       25.50       25.19       24.82       24.32    

 HEAD WILL BE SAVED ON UNIT 1017 AT END OF TIME STEP   10, STRESS PERIOD   37


  VOLUME BUDGET FOR ENTIRE MODEL AT END OF TIME STEP   10, STRESS PERIOD  37
  ---------------------------------------------------------------------------------------------------

     CUMULATIVE VOLUME      L**3       RATES FOR THIS TIME STEP      L**3/T          PACKAGE NAME    
     ------------------                 ------------------------                     ----------------

           IN:                                      IN:
           ---                                      ---
              STO-SS =          60.2541                STO-SS =           0.0000     STORAGE         
              STO-SY =       38982.3415                STO-SY =           0.0000     STORAGE         
                 RCH =      179363.0977                   RCH =         238.3565     RCHA            
                 CHD =        3520.9028                   CHD =           0.0000     CHD             

            TOTAL IN =      221926.5960              TOTAL IN =         238.3565

          OUT:                                     OUT:
          ----                                     ----
              STO-SS =          49.8820                STO-SS =       6.1773E-02     STORAGE         
              STO-SY =       32507.4125                STO-SY =          39.3029     STORAGE         
                 RCH =           0.0000                   RCH =           0.0000     RCHA            
                 CHD =      189368.8476                   CHD =         198.9969     CHD             

           TOTAL OUT =      221926.1421             TOTAL OUT =         238.3616

            IN - OUT =           0.4539              IN - OUT =      -5.0527E-03

 PERCENT DISCREPANCY =           0.00     PERCENT DISCREPANCY =          -0.00




         TIME SUMMARY AT END OF TIME STEP   10 IN STRESS PERIOD   37
                    SECONDS     MINUTES      HOURS       DAYS        YEARS
                    -----------------------------------------------------------
   TIME STEP LENGTH 2.59200E+05  4320.0      72.000      3.0000     8.21355E-03
 STRESS PERIOD TIME 2.59200E+06  43200.      720.00      30.000     8.21355E-02
         TOTAL TIME 9.33984E+07 1.55664E+06  25944.      1081.0      2.9596    

 OUTPUT CONTROL FOR STRESS PERIOD 38 IS REPEATED USING SETTINGS FROM A PREVIOUS STRESS PERIOD.


 STRESS PERIOD 38 IS TRANSIENT


                 RECHARGE =  0.3287670E-02
 UBDSV1 SAVING           STO-SS ON UNIT   1016 AT TIME STEP      1, STRESS PERIOD     38
 UBDSV1 SAVING           STO-SY ON UNIT   1016 AT TIME STEP      1, STRESS PERIOD     38
 UBDSV1 SAVING     FLOW-JA-FACE ON UNIT   1016 AT TIME STEP      1, STRESS PERIOD     38
 UBDSV06 SAVING              RCH IN MODEL TEST_TRANS       PACKAGE TEST_TRANS      CONNECTED TO MODEL TEST_TRANS       PACKAGE RCHA             ON UNIT   1016 AT TIME STEP      1, STRESS PERIOD     38
 UBDSV06 SAVING              CHD IN MODEL TEST_TRANS       PACKAGE TEST_TRANS      CONNECTED TO MODEL TEST_TRANS       PACKAGE CHD              ON UNIT   1016 AT TIME STEP      1, STRESS PERIOD     38
1
  HEAD IN LAYER   1 AT END OF TIME STEP   1 IN STRESS PERIOD   38
  ---------------------------------------------------------------------------

            1           2           3           4           5           6           7           8           9          10
           11          12          13          14          15          16          17          18          19          20
           21          22          23          24          25          26          27          28          29          30
 ........................................................................................................................
   1    27.96       27.95       27.94       27.93       27.91       27.88       27.85       27.81       27.77       27.72    
        27.66       27.60       27.53       27.46       27.38       27.29       27.19       27.08       26.97       26.84    
        26.70       26.55       26.39       26.20       26.00       25.78       25.52       25.23       24.90       24.49    
   2    27.96       27.95       27.94       27.93       27.91       27.88       27.85       27.81       27.77       27.72    
        27.66       27.60       27.53       27.46       27.38       27.29       27.19       27.08       26.97       26.84    
        26.70       26.55       26.39       26.20       26.00       25.78       25.52       25.23       24.90       24.49    
   3    27.96       27.95       27.94       27.93       27.91       27.88       27.85       27.81       27.77       27.72    
        27.66       27.60       27.53       27.46       27.38       27.29       27.19       27.08       26.97       26.84    
        26.70       26.55       26.39       26.20       26.00       25.78       25.52       25.23       24.90       24.49    
   4    27.96       27.95       27.94       27.93       27.91       27.88       27.85       27.81       27.77       27.72    
        27.66       27.60       27.53       27.46       27.38       27.29       27.19       27.08       26.97       26.84    
        26.70       26.55       26.39       26.20       26.00       25.78       25.52       25.23       24.90       24.49    
   5    27.96       27.95       27.94       27.93       27.91       27.88       27.85       27.81       27.77       27.72    
        27.66       27.60       27.53       27.46       27.38       27.29       27.19       27.08       26.97       26.84    
        26.70       26.55       26.39       26.20       26.00       25.78       25.52       25.23       24.90       24.49    
   6    27.96       27.95       27.94       27.93       27.91       27.88       27.85       27.81       27.77       27.72    
        27.66       27.60       27.53       27.46       27.38       27.29       27.19       27.08       26.97       26.84    
        26.70       26.55       26.39       26.20       26.00       25.78       25.52       25.23       24.90       24.49    
   7    27.96       27.95       27.94       27.93       27.91       27.88       27.85       27.81       27.77       27.72    
        27.66       27.60       27.53       27.46       27.38       27.29       27.19       27.08       26.97       26.84    
        26.70       26.55       26.39       26.20       26.00       25.78       25.52       25.23       24.90       24.49    
   8    27.96       27.95       27.94       27.93       27.91       27.88       27.85       27.81       27.77       27.72    
        27.66       27.60       27.53       27.46       27.38       27.29       27.19       27.08       26.97       26.84    
        26.70       26.55       26.39       26.20       26.00       25.78       25.52       25.23       24.90       24.49    
   9    27.96       27.95       27.94       27.93       27.91       27.88       27.85       27.81       27.77       27.72    
        27.66       27.60       27.53       27.46       27.38       27.29       27.19       27.08       26.97       26.84    
        26.70       26.55       26.39       26.20       26.00       25.78       25.52       25.23       24.90       24.49    
  10    27.96       27.95       27.94       27.93       27.91       27.88       27.85       27.81       27.77       27.72    
        27.66       27.60       27.53       27.46       27.38       27.29       27.19       27.08       26.97       26.84    
        26.70       26.55       26.39       26.20       26.00       25.78       25.52       25.23       24.90       24.49    
  11    27.96       27.95       27.94       27.93       27.91       27.88       27.85       27.81       27.77       27.72    
        27.66       27.60       27.53       27.46       27.38       27.29       27.19       27.08       26.97       26.84    
        26.70       26.55       26.39       26.20       26.00       25.78       25.52       25.23       24.90       24.49    
  12    27.96       27.95       27.94       27.93       27.91       27.88       27.85       27.81       27.77       27.72    
        27.66       27.60       27.53       27.46       27.38       27.29       27.19       27.08       26.97       26.84    
        26.70       26.55       26.39       26.20       26.00       25.78       25.52       25.23       24.90       24.49    
  13    27.96       27.95       27.94       27.93       27.91       27.88       27.85       27.81       27.77       27.72    
        27.66       27.60       27.53       27.46       27.38       27.29       27.19       27.08       26.97       26.84    
        26.70       26.55       26.39       26.20       26.00       25.78       25.52       25.23       24.90       24.49    
  14    27.96       27.95       27.94       27.93       27.91       27.88       27.85       27.81       27.77       27.72    
        27.66       27.60       27.53       27.46       27.38       27.29       27.19       27.08       26.97       26.84    
        26.70       26.55       26.39       26.20       26.00       25.78       25.52       25.23       24.90       24.49    
  15    27.96       27.95       27.94       27.93       27.91       27.88       27.85       27.81       27.77       27.72    
        27.66       27.60       27.53       27.46       27.38       27.29       27.19       27.08       26.97       26.84    
        26.70       26.55       26.39       26.20       26.00       25.78       25.52       25.23       24.90       24.49    
  16    27.96       27.95       27.94       27.93       27.91       27.88       27.85       27.81       27.77       27.72    
        27.66       27.60       27.53       27.46       27.38       27.29       27.19       27.08       26.97       26.84    
        26.70       26.55       26.39       26.20       26.00       25.78       25.52       25.23       24.90       24.49    
  17    27.96       27.95       27.94       27.93       27.91       27.88       27.85       27.81       27.77       27.72    
        27.66       27.60       27.53       27.46       27.38       27.29       27.19       27.08       26.97       26.84    
        26.70       26.55       26.39       26.20       26.00       25.78       25.52       25.23       24.90       24.49    
  18    27.96       27.95       27.94       27.93       27.91       27.88       27.85       27.81       27.77       27.72    
        27.66       27.60       27.53       27.46       27.38       27.29       27.19       27.08       26.97       26.84    
        26.70       26.55       26.39       26.20       26.00       25.78       25.52       25.23       24.90       24.49    
  19    27.96       27.95       27.94       27.93       27.91       27.88       27.85       27.81       27.77       27.72    
        27.66       27.60       27.53       27.46       27.38       27.29       27.19       27.08       26.97       26.84    
        26.70       26.55       26.39       26.20       26.00       25.78       25.52       25.23       24.90       24.49    
  20    27.96       27.95       27.94       27.93       27.91       27.88       27.85       27.81       27.77       27.72    
        27.66       27.60       27.53       27.46       27.38       27.29       27.19       27.08       26.97       26.84    
        26.70       26.55       26.39       26.20       26.00       25.78       25.52       25.23       24.90       24.49    
  21    27.96       27.95       27.94       27.93       27.91       27.88       27.85       27.81       27.77       27.72    
        27.66       27.60       27.53       27.46       27.38       27.29       27.19       27.08       26.97       26.84    
        26.70       26.55       26.39       26.20       26.00       25.78       25.52       25.23       24.90       24.49    
  22    27.96       27.95       27.94       27.93       27.91       27.88       27.85       27.81       27.77       27.72    
        27.66       27.60       27.53       27.46       27.38       27.29       27.19       27.08       26.97       26.84    
        26.70       26.55       26.39       26.20       26.00       25.78       25.52       25.23       24.90       24.49    
  23    27.96       27.95       27.94       27.93       27.91       27.88       27.85       27.81       27.77       27.72    
        27.66       27.60       27.53       27.46       27.38       27.29       27.19       27.08       26.97       26.84    
        26.70       26.55       26.39       26.20       26.00       25.78       25.52       25.23       24.90       24.49    
  24    27.96       27.95       27.94       27.93       27.91       27.88       27.85       27.81       27.77       27.72    
        27.66       27.60       27.53       27.46       27.38       27.29       27.19       27.08       26.97       26.84    
        26.70       26.55       26.39       26.20       26.00       25.78       25.52       25.23       24.90       24.49    
  25    27.96       27.95       27.94       27.93       27.91       27.88       27.85       27.81       27.77       27.72    
        27.66       27.60       27.53       27.46       27.38       27.29       27.19       27.08       26.97       26.84    
        26.70       26.55       26.39       26.20       26.00       25.78       25.52       25.23       24.90       24.49    
  26    27.96       27.95       27.94       27.93       27.91       27.88       27.85       27.81       27.77       27.72    
        27.66       27.60       27.53       27.46       27.38       27.29       27.19       27.08       26.97       26.84    
        26.70       26.55       26.39       26.20       26.00       25.78       25.52       25.23       24.90       24.49    
  27    27.96       27.95       27.94       27.93       27.91       27.88       27.85       27.81       27.77       27.72    
        27.66       27.60       27.53       27.46       27.38       27.29       27.19       27.08       26.97       26.84    
        26.70       26.55       26.39       26.20       26.00       25.78       25.52       25.23       24.90       24.49    
  28    27.96       27.95       27.94       27.93       27.91       27.88       27.85       27.81       27.77       27.72    
        27.66       27.60       27.53       27.46       27.38       27.29       27.19       27.08       26.97       26.84    
        26.70       26.55       26.39       26.20       26.00       25.78       25.52       25.23       24.90       24.49    
  29    27.96       27.95       27.94       27.93       27.91       27.88       27.85       27.81       27.77       27.72    
        27.66       27.60       27.53       27.46       27.38       27.29       27.19       27.08       26.97       26.84    
        26.70       26.55       26.39       26.20       26.00       25.78       25.52       25.23       24.90       24.49    
  30    27.96       27.95       27.94       27.93       27.91       27.88       27.85       27.81       27.77       27.72    
        27.66       27.60       27.53       27.46       27.38       27.29       27.19       27.08       26.97       26.84    
        26.70       26.55       26.39       26.20       26.00       25.78       25.52       25.23       24.90       24.49    

 HEAD WILL BE SAVED ON UNIT 1017 AT END OF TIME STEP    1, STRESS PERIOD   38



         TIME SUMMARY AT END OF TIME STEP    1 IN STRESS PERIOD   38
                    SECONDS     MINUTES      HOURS       DAYS        YEARS
                    -----------------------------------------------------------
   TIME STEP LENGTH 2.59200E+05  4320.0      72.000      3.0000     8.21355E-03
 STRESS PERIOD TIME 2.59200E+05  4320.0      72.000      3.0000     8.21355E-03
         TOTAL TIME 9.36576E+07 1.56096E+06  26016.      1084.0      2.9678    
 UBDSV1 SAVING           STO-SS ON UNIT   1016 AT TIME STEP      2, STRESS PERIOD     38
 UBDSV1 SAVING           STO-SY ON UNIT   1016 AT TIME STEP      2, STRESS PERIOD     38
 UBDSV1 SAVING     FLOW-JA-FACE ON UNIT   1016 AT TIME STEP      2, STRESS PERIOD     38
 UBDSV06 SAVING              RCH IN MODEL TEST_TRANS       PACKAGE TEST_TRANS      CONNECTED TO MODEL TEST_TRANS       PACKAGE RCHA             ON UNIT   1016 AT TIME STEP      2, STRESS PERIOD     38
 UBDSV06 SAVING              CHD IN MODEL TEST_TRANS       PACKAGE TEST_TRANS      CONNECTED TO MODEL TEST_TRANS       PACKAGE CHD              ON UNIT   1016 AT TIME STEP      2, STRESS PERIOD     38

 HEAD WILL BE SAVED ON UNIT 1017 AT END OF TIME STEP    2, STRESS PERIOD   38
 UBDSV1 SAVING           STO-SS ON UNIT   1016 AT TIME STEP      3, STRESS PERIOD     38
 UBDSV1 SAVING           STO-SY ON UNIT   1016 AT TIME STEP      3, STRESS PERIOD     38
 UBDSV1 SAVING     FLOW-JA-FACE ON UNIT   1016 AT TIME STEP      3, STRESS PERIOD     38
 UBDSV06 SAVING              RCH IN MODEL TEST_TRANS       PACKAGE TEST_TRANS      CONNECTED TO MODEL TEST_TRANS       PACKAGE RCHA             ON UNIT   1016 AT TIME STEP      3, STRESS PERIOD     38
 UBDSV06 SAVING              CHD IN MODEL TEST_TRANS       PACKAGE TEST_TRANS      CONNECTED TO MODEL TEST_TRANS       PACKAGE CHD              ON UNIT   1016 AT TIME STEP      3, STRESS PERIOD     38

 HEAD WILL BE SAVED ON UNIT 1017 AT END OF TIME STEP    3, STRESS PERIOD   38
 UBDSV1 SAVING           STO-SS ON UNIT   1016 AT TIME STEP      4, STRESS PERIOD     38
 UBDSV1 SAVING           STO-SY ON UNIT   1016 AT TIME STEP      4, STRESS PERIOD     38
 UBDSV1 SAVING     FLOW-JA-FACE ON UNIT   1016 AT TIME STEP      4, STRESS PERIOD     38
 UBDSV06 SAVING              RCH IN MODEL TEST_TRANS       PACKAGE TEST_TRANS      CONNECTED TO MODEL TEST_TRANS       PACKAGE RCHA             ON UNIT   1016 AT TIME STEP      4, STRESS PERIOD     38
 UBDSV06 SAVING              CHD IN MODEL TEST_TRANS       PACKAGE TEST_TRANS      CONNECTED TO MODEL TEST_TRANS       PACKAGE CHD              ON UNIT   1016 AT TIME STEP      4, STRESS PERIOD     38

 HEAD WILL BE SAVED ON UNIT 1017 AT END OF TIME STEP    4, STRESS PERIOD   38
 UBDSV1 SAVING           STO-SS ON UNIT   1016 AT TIME STEP      5, STRESS PERIOD     38
 UBDSV1 SAVING           STO-SY ON UNIT   1016 AT TIME STEP      5, STRESS PERIOD     38
 UBDSV1 SAVING     FLOW-JA-FACE ON UNIT   1016 AT TIME STEP      5, STRESS PERIOD     38
 UBDSV06 SAVING              RCH IN MODEL TEST_TRANS       PACKAGE TEST_TRANS      CONNECTED TO MODEL TEST_TRANS       PACKAGE RCHA             ON UNIT   1016 AT TIME STEP      5, STRESS PERIOD     38
 UBDSV06 SAVING              CHD IN MODEL TEST_TRANS       PACKAGE TEST_TRANS      CONNECTED TO MODEL TEST_TRANS       PACKAGE CHD              ON UNIT   1016 AT TIME STEP      5, STRESS PERIOD     38

 HEAD WILL BE SAVED ON UNIT 1017 AT END OF TIME STEP    5, STRESS PERIOD   38
 UBDSV1 SAVING           STO-SS ON UNIT   1016 AT TIME STEP      6, STRESS PERIOD     38
 UBDSV1 SAVING           STO-SY ON UNIT   1016 AT TIME STEP      6, STRESS PERIOD     38
 UBDSV1 SAVING     FLOW-JA-FACE ON UNIT   1016 AT TIME STEP      6, STRESS PERIOD     38
 UBDSV06 SAVING              RCH IN MODEL TEST_TRANS       PACKAGE TEST_TRANS      CONNECTED TO MODEL TEST_TRANS       PACKAGE RCHA             ON UNIT   1016 AT TIME STEP      6, STRESS PERIOD     38
 UBDSV06 SAVING              CHD IN MODEL TEST_TRANS       PACKAGE TEST_TRANS      CONNECTED TO MODEL TEST_TRANS       PACKAGE CHD              ON UNIT   1016 AT TIME STEP      6, STRESS PERIOD     38

 HEAD WILL BE SAVED ON UNIT 1017 AT END OF TIME STEP    6, STRESS PERIOD   38
 UBDSV1 SAVING           STO-SS ON UNIT   1016 AT TIME STEP      7, STRESS PERIOD     38
 UBDSV1 SAVING           STO-SY ON UNIT   1016 AT TIME STEP      7, STRESS PERIOD     38
 UBDSV1 SAVING     FLOW-JA-FACE ON UNIT   1016 AT TIME STEP      7, STRESS PERIOD     38
 UBDSV06 SAVING              RCH IN MODEL TEST_TRANS       PACKAGE TEST_TRANS      CONNECTED TO MODEL TEST_TRANS       PACKAGE RCHA             ON UNIT   1016 AT TIME STEP      7, STRESS PERIOD     38
 UBDSV06 SAVING              CHD IN MODEL TEST_TRANS       PACKAGE TEST_TRANS      CONNECTED TO MODEL TEST_TRANS       PACKAGE CHD              ON UNIT   1016 AT TIME STEP      7, STRESS PERIOD     38

 HEAD WILL BE SAVED ON UNIT 1017 AT END OF TIME STEP    7, STRESS PERIOD   38
 UBDSV1 SAVING           STO-SS ON UNIT   1016 AT TIME STEP      8, STRESS PERIOD     38
 UBDSV1 SAVING           STO-SY ON UNIT   1016 AT TIME STEP      8, STRESS PERIOD     38
 UBDSV1 SAVING     FLOW-JA-FACE ON UNIT   1016 AT TIME STEP      8, STRESS PERIOD     38
 UBDSV06 SAVING              RCH IN MODEL TEST_TRANS       PACKAGE TEST_TRANS      CONNECTED TO MODEL TEST_TRANS       PACKAGE RCHA             ON UNIT   1016 AT TIME STEP      8, STRESS PERIOD     38
 UBDSV06 SAVING              CHD IN MODEL TEST_TRANS       PACKAGE TEST_TRANS      CONNECTED TO MODEL TEST_TRANS       PACKAGE CHD              ON UNIT   1016 AT TIME STEP      8, STRESS PERIOD     38

 HEAD WILL BE SAVED ON UNIT 1017 AT END OF TIME STEP    8, STRESS PERIOD   38
 UBDSV1 SAVING           STO-SS ON UNIT   1016 AT TIME STEP      9, STRESS PERIOD     38
 UBDSV1 SAVING           STO-SY ON UNIT   1016 AT TIME STEP      9, STRESS PERIOD     38
 UBDSV1 SAVING     FLOW-JA-FACE ON UNIT   1016 AT TIME STEP      9, STRESS PERIOD     38
 UBDSV06 SAVING              RCH IN MODEL TEST_TRANS       PACKAGE TEST_TRANS      CONNECTED TO MODEL TEST_TRANS       PACKAGE RCHA             ON UNIT   1016 AT TIME STEP      9, STRESS PERIOD     38
 UBDSV06 SAVING              CHD IN MODEL TEST_TRANS       PACKAGE TEST_TRANS      CONNECTED TO MODEL TEST_TRANS       PACKAGE CHD              ON UNIT   1016 AT TIME STEP      9, STRESS PERIOD     38

 HEAD WILL BE SAVED ON UNIT 1017 AT END OF TIME STEP    9, STRESS PERIOD   38
 UBDSV1 SAVING           STO-SS ON UNIT   1016 AT TIME STEP     10, STRESS PERIOD     38
 UBDSV1 SAVING           STO-SY ON UNIT   1016 AT TIME STEP     10, STRESS PERIOD     38
 UBDSV1 SAVING     FLOW-JA-FACE ON UNIT   1016 AT TIME STEP     10, STRESS PERIOD     38
 UBDSV06 SAVING              RCH IN MODEL TEST_TRANS       PACKAGE TEST_TRANS      CONNECTED TO MODEL TEST_TRANS       PACKAGE RCHA             ON UNIT   1016 AT TIME STEP     10, STRESS PERIOD     38
 UBDSV06 SAVING              CHD IN MODEL TEST_TRANS       PACKAGE TEST_TRANS      CONNECTED TO MODEL TEST_TRANS       PACKAGE CHD              ON UNIT   1016 AT TIME STEP     10, STRESS PERIOD     38
1
  HEAD IN LAYER   1 AT END OF TIME STEP  10 IN STRESS PERIOD   38
  ---------------------------------------------------------------------------

            1           2           3           4           5           6           7           8           9          10
           11          12          13          14          15          16          17          18          19          20
           21          22          23          24          25          26          27          28          29          30
 ........................................................................................................................
   1    28.10       28.09       28.08       28.06       28.04       28.02       27.98       27.95       27.90       27.85    
        27.80       27.74       27.67       27.59       27.51       27.42       27.32       27.21       27.10       26.97    
        26.83       26.68       26.51       26.33       26.13       25.90       25.64       25.34       24.97       24.49    
   2    28.10       28.09       28.08       28.06       28.04       28.02       27.98       27.95       27.90       27.85    
        27.80       27.74       27.67       27.59       27.51       27.42       27.32       27.21       27.10       26.97    
        26.83       26.68       26.51       26.33       26.13       25.90       25.64       25.34       24.97       24.49    
   3    28.10       28.09       28.08       28.06       28.04       28.02       27.98       27.95       27.90       27.85    
        27.80       27.74       27.67       27.59       27.51       27.42       27.32       27.21       27.10       26.97    
        26.83       26.68       26.51       26.33       26.13       25.90       25.64       25.34       24.97       24.49    
   4    28.10       28.09       28.08       28.06       28.04       28.02       27.98       27.95       27.90       27.85    
        27.80       27.74       27.67       27.59       27.51       27.42       27.32       27.21       27.10       26.97    
        26.83       26.68       26.51       26.33       26.13       25.90       25.64       25.34       24.97       24.49    
   5    28.10       28.09       28.08       28.06       28.04       28.02       27.98       27.95       27.90       27.85    
        27.80       27.74       27.67       27.59       27.51       27.42       27.32       27.21       27.10       26.97    
        26.83       26.68       26.51       26.33       26.13       25.90       25.64       25.34       24.97       24.49    
   6    28.10       28.09       28.08       28.06       28.04       28.02       27.98       27.95       27.90       27.85    
        27.80       27.74       27.67       27.59       27.51       27.42       27.32       27.21       27.10       26.97    
        26.83       26.68       26.51       26.33       26.13       25.90       25.64       25.34       24.97       24.49    
   7    28.10       28.09       28.08       28.06       28.04       28.02       27.98       27.95       27.90       27.85    
        27.80       27.74       27.67       27.59       27.51       27.42       27.32       27.21       27.10       26.97    
        26.83       26.68       26.51       26.33       26.13       25.90       25.64       25.34       24.97       24.49    
   8    28.10       28.09       28.08       28.06       28.04       28.02       27.98       27.95       27.90       27.85    
        27.80       27.74       27.67       27.59       27.51       27.42       27.32       27.21       27.10       26.97    
        26.83       26.68       26.51       26.33       26.13       25.90       25.64       25.34       24.97       24.49    
   9    28.10       28.09       28.08       28.06       28.04       28.02       27.98       27.95       27.90       27.85    
        27.80       27.74       27.67       27.59       27.51       27.42       27.32       27.21       27.10       26.97    
        26.83       26.68       26.51       26.33       26.13       25.90       25.64       25.34       24.97       24.49    
  10    28.10       28.09       28.08       28.06       28.04       28.02       27.98       27.95       27.90       27.85    
        27.80       27.74       27.67       27.59       27.51       27.42       27.32       27.21       27.10       26.97    
        26.83       26.68       26.51       26.33       26.13       25.90       25.64       25.34       24.97       24.49    
  11    28.10       28.09       28.08       28.06       28.04       28.02       27.98       27.95       27.90       27.85    
        27.80       27.74       27.67       27.59       27.51       27.42       27.32       27.21       27.10       26.97    
        26.83       26.68       26.51       26.33       26.13       25.90       25.64       25.34       24.97       24.49    
  12    28.10       28.09       28.08       28.06       28.04       28.02       27.98       27.95       27.90       27.85    
        27.80       27.74       27.67       27.59       27.51       27.42       27.32       27.21       27.10       26.97    
        26.83       26.68       26.51       26.33       26.13       25.90       25.64       25.34       24.97       24.49    
  13    28.10       28.09       28.08       28.06       28.04       28.02       27.98       27.95       27.90       27.85    
        27.80       27.74       27.67       27.59       27.51       27.42       27.32       27.21       27.10       26.97    
        26.83       26.68       26.51       26.33       26.13       25.90       25.64       25.34       24.97       24.49    
  14    28.10       28.09       28.08       28.06       28.04       28.02       27.98       27.95       27.90       27.85    
        27.80       27.74       27.67       27.59       27.51       27.42       27.32       27.21       27.10       26.97    
        26.83       26.68       26.51       26.33       26.13       25.90       25.64       25.34       24.97       24.49    
  15    28.10       28.09       28.08       28.06       28.04       28.02       27.98       27.95       27.90       27.85    
        27.80       27.74       27.67       27.59       27.51       27.42       27.32       27.21       27.10       26.97    
        26.83       26.68       26.51       26.33       26.13       25.90       25.64       25.34       24.97       24.49    
  16    28.10       28.09       28.08       28.06       28.04       28.02       27.98       27.95       27.90       27.85    
        27.80       27.74       27.67       27.59       27.51       27.42       27.32       27.21       27.10       26.97    
        26.83       26.68       26.51       26.33       26.13       25.90       25.64       25.34       24.97       24.49    
  17    28.10       28.09       28.08       28.06       28.04       28.02       27.98       27.95       27.90       27.85    
        27.80       27.74       27.67       27.59       27.51       27.42       27.32       27.21       27.10       26.97    
        26.83       26.68       26.51       26.33       26.13       25.90       25.64       25.34       24.97       24.49    
  18    28.10       28.09       28.08       28.06       28.04       28.02       27.98       27.95       27.90       27.85    
        27.80       27.74       27.67       27.59       27.51       27.42       27.32       27.21       27.10       26.97    
        26.83       26.68       26.51       26.33       26.13       25.90       25.64       25.34       24.97       24.49    
  19    28.10       28.09       28.08       28.06       28.04       28.02       27.98       27.95       27.90       27.85    
        27.80       27.74       27.67       27.59       27.51       27.42       27.32       27.21       27.10       26.97    
        26.83       26.68       26.51       26.33       26.13       25.90       25.64       25.34       24.97       24.49    
  20    28.10       28.09       28.08       28.06       28.04       28.02       27.98       27.95       27.90       27.85    
        27.80       27.74       27.67       27.59       27.51       27.42       27.32       27.21       27.10       26.97    
        26.83       26.68       26.51       26.33       26.13       25.90       25.64       25.34       24.97       24.49    
  21    28.10       28.09       28.08       28.06       28.04       28.02       27.98       27.95       27.90       27.85    
        27.80       27.74       27.67       27.59       27.51       27.42       27.32       27.21       27.10       26.97    
        26.83       26.68       26.51       26.33       26.13       25.90       25.64       25.34       24.97       24.49    
  22    28.10       28.09       28.08       28.06       28.04       28.02       27.98       27.95       27.90       27.85    
        27.80       27.74       27.67       27.59       27.51       27.42       27.32       27.21       27.10       26.97    
        26.83       26.68       26.51       26.33       26.13       25.90       25.64       25.34       24.97       24.49    
  23    28.10       28.09       28.08       28.06       28.04       28.02       27.98       27.95       27.90       27.85    
        27.80       27.74       27.67       27.59       27.51       27.42       27.32       27.21       27.10       26.97    
        26.83       26.68       26.51       26.33       26.13       25.90       25.64       25.34       24.97       24.49    
  24    28.10       28.09       28.08       28.06       28.04       28.02       27.98       27.95       27.90       27.85    
        27.80       27.74       27.67       27.59       27.51       27.42       27.32       27.21       27.10       26.97    
        26.83       26.68       26.51       26.33       26.13       25.90       25.64       25.34       24.97       24.49    
  25    28.10       28.09       28.08       28.06       28.04       28.02       27.98       27.95       27.90       27.85    
        27.80       27.74       27.67       27.59       27.51       27.42       27.32       27.21       27.10       26.97    
        26.83       26.68       26.51       26.33       26.13       25.90       25.64       25.34       24.97       24.49    
  26    28.10       28.09       28.08       28.06       28.04       28.02       27.98       27.95       27.90       27.85    
        27.80       27.74       27.67       27.59       27.51       27.42       27.32       27.21       27.10       26.97    
        26.83       26.68       26.51       26.33       26.13       25.90       25.64       25.34       24.97       24.49    
  27    28.10       28.09       28.08       28.06       28.04       28.02       27.98       27.95       27.90       27.85    
        27.80       27.74       27.67       27.59       27.51       27.42       27.32       27.21       27.10       26.97    
        26.83       26.68       26.51       26.33       26.13       25.90       25.64       25.34       24.97       24.49    
  28    28.10       28.09       28.08       28.06       28.04       28.02       27.98       27.95       27.90       27.85    
        27.80       27.74       27.67       27.59       27.51       27.42       27.32       27.21       27.10       26.97    
        26.83       26.68       26.51       26.33       26.13       25.90       25.64       25.34       24.97       24.49    
  29    28.10       28.09       28.08       28.06       28.04       28.02       27.98       27.95       27.90       27.85    
        27.80       27.74       27.67       27.59       27.51       27.42       27.32       27.21       27.10       26.97    
        26.83       26.68       26.51       26.33       26.13       25.90       25.64       25.34       24.97       24.49    
  30    28.10       28.09       28.08       28.06       28.04       28.02       27.98       27.95       27.90       27.85    
        27.80       27.74       27.67       27.59       27.51       27.42       27.32       27.21       27.10       26.97    
        26.83       26.68       26.51       26.33       26.13       25.90       25.64       25.34       24.97       24.49    

 HEAD WILL BE SAVED ON UNIT 1017 AT END OF TIME STEP   10, STRESS PERIOD   38


  VOLUME BUDGET FOR ENTIRE MODEL AT END OF TIME STEP   10, STRESS PERIOD  38
  ---------------------------------------------------------------------------------------------------

     CUMULATIVE VOLUME      L**3       RATES FOR THIS TIME STEP      L**3/T          PACKAGE NAME    
     ------------------                 ------------------------                     ----------------

           IN:                                      IN:
           ---                                      ---
              STO-SS =          60.2541                STO-SS =           0.0000     STORAGE         
              STO-SY =       38982.3415                STO-SY =           0.0000     STORAGE         
                 RCH =      187943.9164                   RCH =         286.0273     RCHA            
                 CHD =        3520.9028                   CHD =           0.0000     CHD             

            TOTAL IN =      230507.4147              TOTAL IN =         286.0273

          OUT:                                     OUT:
          ----                                     ----
              STO-SS =          53.9206                STO-SS =           0.1172     STORAGE         
              STO-SY =       35089.4413                STO-SY =          73.7670     STORAGE         
                 RCH =           0.0000                   RCH =           0.0000     RCHA            
                 CHD =      195363.8133                   CHD =         212.1522     CHD             

           TOTAL OUT =      230507.1751             TOTAL OUT =         286.0364

            IN - OUT =           0.2396              IN - OUT =      -9.0925E-03

 PERCENT DISCREPANCY =           0.00     PERCENT DISCREPANCY =          -0.00




         TIME SUMMARY AT END OF TIME STEP   10 IN STRESS PERIOD   38
                    SECONDS     MINUTES      HOURS       DAYS        YEARS
                    -----------------------------------------------------------
   TIME STEP LENGTH 2.59200E+05  4320.0      72.000      3.0000     8.21355E-03
 STRESS PERIOD TIME 2.59200E+06  43200.      720.00      30.000     8.21355E-02
         TOTAL TIME 9.59904E+07 1.59984E+06  26664.      1111.0      3.0418    

 OUTPUT CONTROL FOR STRESS PERIOD 39 IS REPEATED USING SETTINGS FROM A PREVIOUS STRESS PERIOD.


 STRESS PERIOD 39 IS TRANSIENT


                 RECHARGE =  0.2465750E-02
 UBDSV1 SAVING           STO-SS ON UNIT   1016 AT TIME STEP      1, STRESS PERIOD     39
 UBDSV1 SAVING           STO-SY ON UNIT   1016 AT TIME STEP      1, STRESS PERIOD     39
 UBDSV1 SAVING     FLOW-JA-FACE ON UNIT   1016 AT TIME STEP      1, STRESS PERIOD     39
 UBDSV06 SAVING              RCH IN MODEL TEST_TRANS       PACKAGE TEST_TRANS      CONNECTED TO MODEL TEST_TRANS       PACKAGE RCHA             ON UNIT   1016 AT TIME STEP      1, STRESS PERIOD     39
 UBDSV06 SAVING              CHD IN MODEL TEST_TRANS       PACKAGE TEST_TRANS      CONNECTED TO MODEL TEST_TRANS       PACKAGE CHD              ON UNIT   1016 AT TIME STEP      1, STRESS PERIOD     39
1
  HEAD IN LAYER   1 AT END OF TIME STEP   1 IN STRESS PERIOD   39
  ---------------------------------------------------------------------------

            1           2           3           4           5           6           7           8           9          10
           11          12          13          14          15          16          17          18          19          20
           21          22          23          24          25          26          27          28          29          30
 ........................................................................................................................
   1    28.10       28.09       28.08       28.07       28.04       28.02       27.99       27.95       27.91       27.86    
        27.80       27.74       27.67       27.59       27.51       27.42       27.32       27.22       27.10       26.97    
        26.83       26.68       26.52       26.34       26.14       25.93       25.69       25.43       25.17       24.93    
   2    28.10       28.09       28.08       28.07       28.04       28.02       27.99       27.95       27.91       27.86    
        27.80       27.74       27.67       27.59       27.51       27.42       27.32       27.22       27.10       26.97    
        26.83       26.68       26.52       26.34       26.14       25.93       25.69       25.43       25.17       24.93    
   3    28.10       28.09       28.08       28.07       28.04       28.02       27.99       27.95       27.91       27.86    
        27.80       27.74       27.67       27.59       27.51       27.42       27.32       27.22       27.10       26.97    
        26.83       26.68       26.52       26.34       26.14       25.93       25.69       25.43       25.17       24.93    
   4    28.10       28.09       28.08       28.07       28.04       28.02       27.99       27.95       27.91       27.86    
        27.80       27.74       27.67       27.59       27.51       27.42       27.32       27.22       27.10       26.97    
        26.83       26.68       26.52       26.34       26.14       25.93       25.69       25.43       25.17       24.93    
   5    28.10       28.09       28.08       28.07       28.04       28.02       27.99       27.95       27.91       27.86    
        27.80       27.74       27.67       27.59       27.51       27.42       27.32       27.22       27.10       26.97    
        26.83       26.68       26.52       26.34       26.14       25.93       25.69       25.43       25.17       24.93    
   6    28.10       28.09       28.08       28.07       28.04       28.02       27.99       27.95       27.91       27.86    
        27.80       27.74       27.67       27.59       27.51       27.42       27.32       27.22       27.10       26.97    
        26.83       26.68       26.52       26.34       26.14       25.93       25.69       25.43       25.17       24.93    
   7    28.10       28.09       28.08       28.07       28.04       28.02       27.99       27.95       27.91       27.86    
        27.80       27.74       27.67       27.59       27.51       27.42       27.32       27.22       27.10       26.97    
        26.83       26.68       26.52       26.34       26.14       25.93       25.69       25.43       25.17       24.93    
   8    28.10       28.09       28.08       28.07       28.04       28.02       27.99       27.95       27.91       27.86    
        27.80       27.74       27.67       27.59       27.51       27.42       27.32       27.22       27.10       26.97    
        26.83       26.68       26.52       26.34       26.14       25.93       25.69       25.43       25.17       24.93    
   9    28.10       28.09       28.08       28.07       28.04       28.02       27.99       27.95       27.91       27.86    
        27.80       27.74       27.67       27.59       27.51       27.42       27.32       27.22       27.10       26.97    
        26.83       26.68       26.52       26.34       26.14       25.93       25.69       25.43       25.17       24.93    
  10    28.10       28.09       28.08       28.07       28.04       28.02       27.99       27.95       27.91       27.86    
        27.80       27.74       27.67       27.59       27.51       27.42       27.32       27.22       27.10       26.97    
        26.83       26.68       26.52       26.34       26.14       25.93       25.69       25.43       25.17       24.93    
  11    28.10       28.09       28.08       28.07       28.04       28.02       27.99       27.95       27.91       27.86    
        27.80       27.74       27.67       27.59       27.51       27.42       27.32       27.22       27.10       26.97    
        26.83       26.68       26.52       26.34       26.14       25.93       25.69       25.43       25.17       24.93    
  12    28.10       28.09       28.08       28.07       28.04       28.02       27.99       27.95       27.91       27.86    
        27.80       27.74       27.67       27.59       27.51       27.42       27.32       27.22       27.10       26.97    
        26.83       26.68       26.52       26.34       26.14       25.93       25.69       25.43       25.17       24.93    
  13    28.10       28.09       28.08       28.07       28.04       28.02       27.99       27.95       27.91       27.86    
        27.80       27.74       27.67       27.59       27.51       27.42       27.32       27.22       27.10       26.97    
        26.83       26.68       26.52       26.34       26.14       25.93       25.69       25.43       25.17       24.93    
  14    28.10       28.09       28.08       28.07       28.04       28.02       27.99       27.95       27.91       27.86    
        27.80       27.74       27.67       27.59       27.51       27.42       27.32       27.22       27.10       26.97    
        26.83       26.68       26.52       26.34       26.14       25.93       25.69       25.43       25.17       24.93    
  15    28.10       28.09       28.08       28.07       28.04       28.02       27.99       27.95       27.91       27.86    
        27.80       27.74       27.67       27.59       27.51       27.42       27.32       27.22       27.10       26.97    
        26.83       26.68       26.52       26.34       26.14       25.93       25.69       25.43       25.17       24.93    
  16    28.10       28.09       28.08       28.07       28.04       28.02       27.99       27.95       27.91       27.86    
        27.80       27.74       27.67       27.59       27.51       27.42       27.32       27.22       27.10       26.97    
        26.83       26.68       26.52       26.34       26.14       25.93       25.69       25.43       25.17       24.93    
  17    28.10       28.09       28.08       28.07       28.04       28.02       27.99       27.95       27.91       27.86    
        27.80       27.74       27.67       27.59       27.51       27.42       27.32       27.22       27.10       26.97    
        26.83       26.68       26.52       26.34       26.14       25.93       25.69       25.43       25.17       24.93    
  18    28.10       28.09       28.08       28.07       28.04       28.02       27.99       27.95       27.91       27.86    
        27.80       27.74       27.67       27.59       27.51       27.42       27.32       27.22       27.10       26.97    
        26.83       26.68       26.52       26.34       26.14       25.93       25.69       25.43       25.17       24.93    
  19    28.10       28.09       28.08       28.07       28.04       28.02       27.99       27.95       27.91       27.86    
        27.80       27.74       27.67       27.59       27.51       27.42       27.32       27.22       27.10       26.97    
        26.83       26.68       26.52       26.34       26.14       25.93       25.69       25.43       25.17       24.93    
  20    28.10       28.09       28.08       28.07       28.04       28.02       27.99       27.95       27.91       27.86    
        27.80       27.74       27.67       27.59       27.51       27.42       27.32       27.22       27.10       26.97    
        26.83       26.68       26.52       26.34       26.14       25.93       25.69       25.43       25.17       24.93    
  21    28.10       28.09       28.08       28.07       28.04       28.02       27.99       27.95       27.91       27.86    
        27.80       27.74       27.67       27.59       27.51       27.42       27.32       27.22       27.10       26.97    
        26.83       26.68       26.52       26.34       26.14       25.93       25.69       25.43       25.17       24.93    
  22    28.10       28.09       28.08       28.07       28.04       28.02       27.99       27.95       27.91       27.86    
        27.80       27.74       27.67       27.59       27.51       27.42       27.32       27.22       27.10       26.97    
        26.83       26.68       26.52       26.34       26.14       25.93       25.69       25.43       25.17       24.93    
  23    28.10       28.09       28.08       28.07       28.04       28.02       27.99       27.95       27.91       27.86    
        27.80       27.74       27.67       27.59       27.51       27.42       27.32       27.22       27.10       26.97    
        26.83       26.68       26.52       26.34       26.14       25.93       25.69       25.43       25.17       24.93    
  24    28.10       28.09       28.08       28.07       28.04       28.02       27.99       27.95       27.91       27.86    
        27.80       27.74       27.67       27.59       27.51       27.42       27.32       27.22       27.10       26.97    
        26.83       26.68       26.52       26.34       26.14       25.93       25.69       25.43       25.17       24.93    
  25    28.10       28.09       28.08       28.07       28.04       28.02       27.99       27.95       27.91       27.86    
        27.80       27.74       27.67       27.59       27.51       27.42       27.32       27.22       27.10       26.97    
        26.83       26.68       26.52       26.34       26.14       25.93       25.69       25.43       25.17       24.93    
  26    28.10       28.09       28.08       28.07       28.04       28.02       27.99       27.95       27.91       27.86    
        27.80       27.74       27.67       27.59       27.51       27.42       27.32       27.22       27.10       26.97    
        26.83       26.68       26.52       26.34       26.14       25.93       25.69       25.43       25.17       24.93    
  27    28.10       28.09       28.08       28.07       28.04       28.02       27.99       27.95       27.91       27.86    
        27.80       27.74       27.67       27.59       27.51       27.42       27.32       27.22       27.10       26.97    
        26.83       26.68       26.52       26.34       26.14       25.93       25.69       25.43       25.17       24.93    
  28    28.10       28.09       28.08       28.07       28.04       28.02       27.99       27.95       27.91       27.86    
        27.80       27.74       27.67       27.59       27.51       27.42       27.32       27.22       27.10       26.97    
        26.83       26.68       26.52       26.34       26.14       25.93       25.69       25.43       25.17       24.93    
  29    28.10       28.09       28.08       28.07       28.04       28.02       27.99       27.95       27.91       27.86    
        27.80       27.74       27.67       27.59       27.51       27.42       27.32       27.22       27.10       26.97    
        26.83       26.68       26.52       26.34       26.14       25.93       25.69       25.43       25.17       24.93    
  30    28.10       28.09       28.08       28.07       28.04       28.02       27.99       27.95       27.91       27.86    
        27.80       27.74       27.67       27.59       27.51       27.42       27.32       27.22       27.10       26.97    
        26.83       26.68       26.52       26.34       26.14       25.93       25.69       25.43       25.17       24.93    

 HEAD WILL BE SAVED ON UNIT 1017 AT END OF TIME STEP    1, STRESS PERIOD   39



         TIME SUMMARY AT END OF TIME STEP    1 IN STRESS PERIOD   39
                    SECONDS     MINUTES      HOURS       DAYS        YEARS
                    -----------------------------------------------------------
   TIME STEP LENGTH 2.59200E+05  4320.0      72.000      3.0000     8.21355E-03
 STRESS PERIOD TIME 2.59200E+05  4320.0      72.000      3.0000     8.21355E-03
         TOTAL TIME 9.62496E+07 1.60416E+06  26736.      1114.0      3.0500    
 UBDSV1 SAVING           STO-SS ON UNIT   1016 AT TIME STEP      2, STRESS PERIOD     39
 UBDSV1 SAVING           STO-SY ON UNIT   1016 AT TIME STEP      2, STRESS PERIOD     39
 UBDSV1 SAVING     FLOW-JA-FACE ON UNIT   1016 AT TIME STEP      2, STRESS PERIOD     39
 UBDSV06 SAVING              RCH IN MODEL TEST_TRANS       PACKAGE TEST_TRANS      CONNECTED TO MODEL TEST_TRANS       PACKAGE RCHA             ON UNIT   1016 AT TIME STEP      2, STRESS PERIOD     39
 UBDSV06 SAVING              CHD IN MODEL TEST_TRANS       PACKAGE TEST_TRANS      CONNECTED TO MODEL TEST_TRANS       PACKAGE CHD              ON UNIT   1016 AT TIME STEP      2, STRESS PERIOD     39

 HEAD WILL BE SAVED ON UNIT 1017 AT END OF TIME STEP    2, STRESS PERIOD   39
 UBDSV1 SAVING           STO-SS ON UNIT   1016 AT TIME STEP      3, STRESS PERIOD     39
 UBDSV1 SAVING           STO-SY ON UNIT   1016 AT TIME STEP      3, STRESS PERIOD     39
 UBDSV1 SAVING     FLOW-JA-FACE ON UNIT   1016 AT TIME STEP      3, STRESS PERIOD     39
 UBDSV06 SAVING              RCH IN MODEL TEST_TRANS       PACKAGE TEST_TRANS      CONNECTED TO MODEL TEST_TRANS       PACKAGE RCHA             ON UNIT   1016 AT TIME STEP      3, STRESS PERIOD     39
 UBDSV06 SAVING              CHD IN MODEL TEST_TRANS       PACKAGE TEST_TRANS      CONNECTED TO MODEL TEST_TRANS       PACKAGE CHD              ON UNIT   1016 AT TIME STEP      3, STRESS PERIOD     39

 HEAD WILL BE SAVED ON UNIT 1017 AT END OF TIME STEP    3, STRESS PERIOD   39
 UBDSV1 SAVING           STO-SS ON UNIT   1016 AT TIME STEP      4, STRESS PERIOD     39
 UBDSV1 SAVING           STO-SY ON UNIT   1016 AT TIME STEP      4, STRESS PERIOD     39
 UBDSV1 SAVING     FLOW-JA-FACE ON UNIT   1016 AT TIME STEP      4, STRESS PERIOD     39
 UBDSV06 SAVING              RCH IN MODEL TEST_TRANS       PACKAGE TEST_TRANS      CONNECTED TO MODEL TEST_TRANS       PACKAGE RCHA             ON UNIT   1016 AT TIME STEP      4, STRESS PERIOD     39
 UBDSV06 SAVING              CHD IN MODEL TEST_TRANS       PACKAGE TEST_TRANS      CONNECTED TO MODEL TEST_TRANS       PACKAGE CHD              ON UNIT   1016 AT TIME STEP      4, STRESS PERIOD     39

 HEAD WILL BE SAVED ON UNIT 1017 AT END OF TIME STEP    4, STRESS PERIOD   39
 UBDSV1 SAVING           STO-SS ON UNIT   1016 AT TIME STEP      5, STRESS PERIOD     39
 UBDSV1 SAVING           STO-SY ON UNIT   1016 AT TIME STEP      5, STRESS PERIOD     39
 UBDSV1 SAVING     FLOW-JA-FACE ON UNIT   1016 AT TIME STEP      5, STRESS PERIOD     39
 UBDSV06 SAVING              RCH IN MODEL TEST_TRANS       PACKAGE TEST_TRANS      CONNECTED TO MODEL TEST_TRANS       PACKAGE RCHA             ON UNIT   1016 AT TIME STEP      5, STRESS PERIOD     39
 UBDSV06 SAVING              CHD IN MODEL TEST_TRANS       PACKAGE TEST_TRANS      CONNECTED TO MODEL TEST_TRANS       PACKAGE CHD              ON UNIT   1016 AT TIME STEP      5, STRESS PERIOD     39

 HEAD WILL BE SAVED ON UNIT 1017 AT END OF TIME STEP    5, STRESS PERIOD   39
 UBDSV1 SAVING           STO-SS ON UNIT   1016 AT TIME STEP      6, STRESS PERIOD     39
 UBDSV1 SAVING           STO-SY ON UNIT   1016 AT TIME STEP      6, STRESS PERIOD     39
 UBDSV1 SAVING     FLOW-JA-FACE ON UNIT   1016 AT TIME STEP      6, STRESS PERIOD     39
 UBDSV06 SAVING              RCH IN MODEL TEST_TRANS       PACKAGE TEST_TRANS      CONNECTED TO MODEL TEST_TRANS       PACKAGE RCHA             ON UNIT   1016 AT TIME STEP      6, STRESS PERIOD     39
 UBDSV06 SAVING              CHD IN MODEL TEST_TRANS       PACKAGE TEST_TRANS      CONNECTED TO MODEL TEST_TRANS       PACKAGE CHD              ON UNIT   1016 AT TIME STEP      6, STRESS PERIOD     39

 HEAD WILL BE SAVED ON UNIT 1017 AT END OF TIME STEP    6, STRESS PERIOD   39
 UBDSV1 SAVING           STO-SS ON UNIT   1016 AT TIME STEP      7, STRESS PERIOD     39
 UBDSV1 SAVING           STO-SY ON UNIT   1016 AT TIME STEP      7, STRESS PERIOD     39
 UBDSV1 SAVING     FLOW-JA-FACE ON UNIT   1016 AT TIME STEP      7, STRESS PERIOD     39
 UBDSV06 SAVING              RCH IN MODEL TEST_TRANS       PACKAGE TEST_TRANS      CONNECTED TO MODEL TEST_TRANS       PACKAGE RCHA             ON UNIT   1016 AT TIME STEP      7, STRESS PERIOD     39
 UBDSV06 SAVING              CHD IN MODEL TEST_TRANS       PACKAGE TEST_TRANS      CONNECTED TO MODEL TEST_TRANS       PACKAGE CHD              ON UNIT   1016 AT TIME STEP      7, STRESS PERIOD     39

 HEAD WILL BE SAVED ON UNIT 1017 AT END OF TIME STEP    7, STRESS PERIOD   39
 UBDSV1 SAVING           STO-SS ON UNIT   1016 AT TIME STEP      8, STRESS PERIOD     39
 UBDSV1 SAVING           STO-SY ON UNIT   1016 AT TIME STEP      8, STRESS PERIOD     39
 UBDSV1 SAVING     FLOW-JA-FACE ON UNIT   1016 AT TIME STEP      8, STRESS PERIOD     39
 UBDSV06 SAVING              RCH IN MODEL TEST_TRANS       PACKAGE TEST_TRANS      CONNECTED TO MODEL TEST_TRANS       PACKAGE RCHA             ON UNIT   1016 AT TIME STEP      8, STRESS PERIOD     39
 UBDSV06 SAVING              CHD IN MODEL TEST_TRANS       PACKAGE TEST_TRANS      CONNECTED TO MODEL TEST_TRANS       PACKAGE CHD              ON UNIT   1016 AT TIME STEP      8, STRESS PERIOD     39

 HEAD WILL BE SAVED ON UNIT 1017 AT END OF TIME STEP    8, STRESS PERIOD   39
 UBDSV1 SAVING           STO-SS ON UNIT   1016 AT TIME STEP      9, STRESS PERIOD     39
 UBDSV1 SAVING           STO-SY ON UNIT   1016 AT TIME STEP      9, STRESS PERIOD     39
 UBDSV1 SAVING     FLOW-JA-FACE ON UNIT   1016 AT TIME STEP      9, STRESS PERIOD     39
 UBDSV06 SAVING              RCH IN MODEL TEST_TRANS       PACKAGE TEST_TRANS      CONNECTED TO MODEL TEST_TRANS       PACKAGE RCHA             ON UNIT   1016 AT TIME STEP      9, STRESS PERIOD     39
 UBDSV06 SAVING              CHD IN MODEL TEST_TRANS       PACKAGE TEST_TRANS      CONNECTED TO MODEL TEST_TRANS       PACKAGE CHD              ON UNIT   1016 AT TIME STEP      9, STRESS PERIOD     39

 HEAD WILL BE SAVED ON UNIT 1017 AT END OF TIME STEP    9, STRESS PERIOD   39
 UBDSV1 SAVING           STO-SS ON UNIT   1016 AT TIME STEP     10, STRESS PERIOD     39
 UBDSV1 SAVING           STO-SY ON UNIT   1016 AT TIME STEP     10, STRESS PERIOD     39
 UBDSV1 SAVING     FLOW-JA-FACE ON UNIT   1016 AT TIME STEP     10, STRESS PERIOD     39
 UBDSV06 SAVING              RCH IN MODEL TEST_TRANS       PACKAGE TEST_TRANS      CONNECTED TO MODEL TEST_TRANS       PACKAGE RCHA             ON UNIT   1016 AT TIME STEP     10, STRESS PERIOD     39
 UBDSV06 SAVING              CHD IN MODEL TEST_TRANS       PACKAGE TEST_TRANS      CONNECTED TO MODEL TEST_TRANS       PACKAGE CHD              ON UNIT   1016 AT TIME STEP     10, STRESS PERIOD     39
1
  HEAD IN LAYER   1 AT END OF TIME STEP  10 IN STRESS PERIOD   39
  ---------------------------------------------------------------------------

            1           2           3           4           5           6           7           8           9          10
           11          12          13          14          15          16          17          18          19          20
           21          22          23          24          25          26          27          28          29          30
 ........................................................................................................................
   1    28.12       28.11       28.10       28.09       28.07       28.04       28.01       27.97       27.93       27.88    
        27.82       27.76       27.70       27.62       27.54       27.46       27.36       27.26       27.15       27.03    
        26.90       26.76       26.60       26.44       26.26       26.05       25.83       25.58       25.28       24.93    
   2    28.12       28.11       28.10       28.09       28.07       28.04       28.01       27.97       27.93       27.88    
        27.82       27.76       27.70       27.62       27.54       27.46       27.36       27.26       27.15       27.03    
        26.90       26.76       26.60       26.44       26.26       26.05       25.83       25.58       25.28       24.93    
   3    28.12       28.11       28.10       28.09       28.07       28.04       28.01       27.97       27.93       27.88    
        27.82       27.76       27.70       27.62       27.54       27.46       27.36       27.26       27.15       27.03    
        26.90       26.76       26.60       26.44       26.26       26.05       25.83       25.58       25.28       24.93    
   4    28.12       28.11       28.10       28.09       28.07       28.04       28.01       27.97       27.93       27.88    
        27.82       27.76       27.70       27.62       27.54       27.46       27.36       27.26       27.15       27.03    
        26.90       26.76       26.60       26.44       26.26       26.05       25.83       25.58       25.28       24.93    
   5    28.12       28.11       28.10       28.09       28.07       28.04       28.01       27.97       27.93       27.88    
        27.82       27.76       27.70       27.62       27.54       27.46       27.36       27.26       27.15       27.03    
        26.90       26.76       26.60       26.44       26.26       26.05       25.83       25.58       25.28       24.93    
   6    28.12       28.11       28.10       28.09       28.07       28.04       28.01       27.97       27.93       27.88    
        27.82       27.76       27.70       27.62       27.54       27.46       27.36       27.26       27.15       27.03    
        26.90       26.76       26.60       26.44       26.26       26.05       25.83       25.58       25.28       24.93    
   7    28.12       28.11       28.10       28.09       28.07       28.04       28.01       27.97       27.93       27.88    
        27.82       27.76       27.70       27.62       27.54       27.46       27.36       27.26       27.15       27.03    
        26.90       26.76       26.60       26.44       26.26       26.05       25.83       25.58       25.28       24.93    
   8    28.12       28.11       28.10       28.09       28.07       28.04       28.01       27.97       27.93       27.88    
        27.82       27.76       27.70       27.62       27.54       27.46       27.36       27.26       27.15       27.03    
        26.90       26.76       26.60       26.44       26.26       26.05       25.83       25.58       25.28       24.93    
   9    28.12       28.11       28.10       28.09       28.07       28.04       28.01       27.97       27.93       27.88    
        27.82       27.76       27.70       27.62       27.54       27.46       27.36       27.26       27.15       27.03    
        26.90       26.76       26.60       26.44       26.26       26.05       25.83       25.58       25.28       24.93    
  10    28.12       28.11       28.10       28.09       28.07       28.04       28.01       27.97       27.93       27.88    
        27.82       27.76       27.70       27.62       27.54       27.46       27.36       27.26       27.15       27.03    
        26.90       26.76       26.60       26.44       26.26       26.05       25.83       25.58       25.28       24.93    
  11    28.12       28.11       28.10       28.09       28.07       28.04       28.01       27.97       27.93       27.88    
        27.82       27.76       27.70       27.62       27.54       27.46       27.36       27.26       27.15       27.03    
        26.90       26.76       26.60       26.44       26.26       26.05       25.83       25.58       25.28       24.93    
  12    28.12       28.11       28.10       28.09       28.07       28.04       28.01       27.97       27.93       27.88    
        27.82       27.76       27.70       27.62       27.54       27.46       27.36       27.26       27.15       27.03    
        26.90       26.76       26.60       26.44       26.26       26.05       25.83       25.58       25.28       24.93    
  13    28.12       28.11       28.10       28.09       28.07       28.04       28.01       27.97       27.93       27.88    
        27.82       27.76       27.70       27.62       27.54       27.46       27.36       27.26       27.15       27.03    
        26.90       26.76       26.60       26.44       26.26       26.05       25.83       25.58       25.28       24.93    
  14    28.12       28.11       28.10       28.09       28.07       28.04       28.01       27.97       27.93       27.88    
        27.82       27.76       27.70       27.62       27.54       27.46       27.36       27.26       27.15       27.03    
        26.90       26.76       26.60       26.44       26.26       26.05       25.83       25.58       25.28       24.93    
  15    28.12       28.11       28.10       28.09       28.07       28.04       28.01       27.97       27.93       27.88    
        27.82       27.76       27.70       27.62       27.54       27.46       27.36       27.26       27.15       27.03    
        26.90       26.76       26.60       26.44       26.26       26.05       25.83       25.58       25.28       24.93    
  16    28.12       28.11       28.10       28.09       28.07       28.04       28.01       27.97       27.93       27.88    
        27.82       27.76       27.70       27.62       27.54       27.46       27.36       27.26       27.15       27.03    
        26.90       26.76       26.60       26.44       26.26       26.05       25.83       25.58       25.28       24.93    
  17    28.12       28.11       28.10       28.09       28.07       28.04       28.01       27.97       27.93       27.88    
        27.82       27.76       27.70       27.62       27.54       27.46       27.36       27.26       27.15       27.03    
        26.90       26.76       26.60       26.44       26.26       26.05       25.83       25.58       25.28       24.93    
  18    28.12       28.11       28.10       28.09       28.07       28.04       28.01       27.97       27.93       27.88    
        27.82       27.76       27.70       27.62       27.54       27.46       27.36       27.26       27.15       27.03    
        26.90       26.76       26.60       26.44       26.26       26.05       25.83       25.58       25.28       24.93    
  19    28.12       28.11       28.10       28.09       28.07       28.04       28.01       27.97       27.93       27.88    
        27.82       27.76       27.70       27.62       27.54       27.46       27.36       27.26       27.15       27.03    
        26.90       26.76       26.60       26.44       26.26       26.05       25.83       25.58       25.28       24.93    
  20    28.12       28.11       28.10       28.09       28.07       28.04       28.01       27.97       27.93       27.88    
        27.82       27.76       27.70       27.62       27.54       27.46       27.36       27.26       27.15       27.03    
        26.90       26.76       26.60       26.44       26.26       26.05       25.83       25.58       25.28       24.93    
  21    28.12       28.11       28.10       28.09       28.07       28.04       28.01       27.97       27.93       27.88    
        27.82       27.76       27.70       27.62       27.54       27.46       27.36       27.26       27.15       27.03    
        26.90       26.76       26.60       26.44       26.26       26.05       25.83       25.58       25.28       24.93    
  22    28.12       28.11       28.10       28.09       28.07       28.04       28.01       27.97       27.93       27.88    
        27.82       27.76       27.70       27.62       27.54       27.46       27.36       27.26       27.15       27.03    
        26.90       26.76       26.60       26.44       26.26       26.05       25.83       25.58       25.28       24.93    
  23    28.12       28.11       28.10       28.09       28.07       28.04       28.01       27.97       27.93       27.88    
        27.82       27.76       27.70       27.62       27.54       27.46       27.36       27.26       27.15       27.03    
        26.90       26.76       26.60       26.44       26.26       26.05       25.83       25.58       25.28       24.93    
  24    28.12       28.11       28.10       28.09       28.07       28.04       28.01       27.97       27.93       27.88    
        27.82       27.76       27.70       27.62       27.54       27.46       27.36       27.26       27.15       27.03    
        26.90       26.76       26.60       26.44       26.26       26.05       25.83       25.58       25.28       24.93    
  25    28.12       28.11       28.10       28.09       28.07       28.04       28.01       27.97       27.93       27.88    
        27.82       27.76       27.70       27.62       27.54       27.46       27.36       27.26       27.15       27.03    
        26.90       26.76       26.60       26.44       26.26       26.05       25.83       25.58       25.28       24.93    
  26    28.12       28.11       28.10       28.09       28.07       28.04       28.01       27.97       27.93       27.88    
        27.82       27.76       27.70       27.62       27.54       27.46       27.36       27.26       27.15       27.03    
        26.90       26.76       26.60       26.44       26.26       26.05       25.83       25.58       25.28       24.93    
  27    28.12       28.11       28.10       28.09       28.07       28.04       28.01       27.97       27.93       27.88    
        27.82       27.76       27.70       27.62       27.54       27.46       27.36       27.26       27.15       27.03    
        26.90       26.76       26.60       26.44       26.26       26.05       25.83       25.58       25.28       24.93    
  28    28.12       28.11       28.10       28.09       28.07       28.04       28.01       27.97       27.93       27.88    
        27.82       27.76       27.70       27.62       27.54       27.46       27.36       27.26       27.15       27.03    
        26.90       26.76       26.60       26.44       26.26       26.05       25.83       25.58       25.28       24.93    
  29    28.12       28.11       28.10       28.09       28.07       28.04       28.01       27.97       27.93       27.88    
        27.82       27.76       27.70       27.62       27.54       27.46       27.36       27.26       27.15       27.03    
        26.90       26.76       26.60       26.44       26.26       26.05       25.83       25.58       25.28       24.93    
  30    28.12       28.11       28.10       28.09       28.07       28.04       28.01       27.97       27.93       27.88    
        27.82       27.76       27.70       27.62       27.54       27.46       27.36       27.26       27.15       27.03    
        26.90       26.76       26.60       26.44       26.26       26.05       25.83       25.58       25.28       24.93    

 HEAD WILL BE SAVED ON UNIT 1017 AT END OF TIME STEP   10, STRESS PERIOD   39


  VOLUME BUDGET FOR ENTIRE MODEL AT END OF TIME STEP   10, STRESS PERIOD  39
  ---------------------------------------------------------------------------------------------------

     CUMULATIVE VOLUME      L**3       RATES FOR THIS TIME STEP      L**3/T          PACKAGE NAME    
     ------------------                 ------------------------                     ----------------

           IN:                                      IN:
           ---                                      ---
              STO-SS =          60.2541                STO-SS =           0.0000     STORAGE         
              STO-SY =       38982.3415                STO-SY =           0.0000     STORAGE         
                 RCH =      194379.5239                   RCH =         214.5203     RCHA            
                 CHD =        3520.9028                   CHD =           0.0000     CHD             

            TOTAL IN =      236943.0222              TOTAL IN =         214.5203

          OUT:                                     OUT:
          ----                                     ----
              STO-SS =          55.6924                STO-SS =       3.7051E-02     STORAGE         
              STO-SY =       36279.0967                STO-SY =          23.7112     STORAGE         
                 RCH =           0.0000                   RCH =           0.0000     RCHA            
                 CHD =      200608.0763                   CHD =         190.7760     CHD             

           TOTAL OUT =      236942.8655             TOTAL OUT =         214.5243

            IN - OUT =           0.1568              IN - OUT =      -4.0229E-03

 PERCENT DISCREPANCY =           0.00     PERCENT DISCREPANCY =          -0.00




         TIME SUMMARY AT END OF TIME STEP   10 IN STRESS PERIOD   39
                    SECONDS     MINUTES      HOURS       DAYS        YEARS
                    -----------------------------------------------------------
   TIME STEP LENGTH 2.59200E+05  4320.0      72.000      3.0000     8.21355E-03
 STRESS PERIOD TIME 2.59200E+06  43200.      720.00      30.000     8.21355E-02
         TOTAL TIME 9.85824E+07 1.64304E+06  27384.      1141.0      3.1239    

 OUTPUT CONTROL FOR STRESS PERIOD 40 IS REPEATED USING SETTINGS FROM A PREVIOUS STRESS PERIOD.


 STRESS PERIOD 40 IS TRANSIENT


                 RECHARGE =  0.1643840E-02
 UBDSV1 SAVING           STO-SS ON UNIT   1016 AT TIME STEP      1, STRESS PERIOD     40
 UBDSV1 SAVING           STO-SY ON UNIT   1016 AT TIME STEP      1, STRESS PERIOD     40
 UBDSV1 SAVING     FLOW-JA-FACE ON UNIT   1016 AT TIME STEP      1, STRESS PERIOD     40
 UBDSV06 SAVING              RCH IN MODEL TEST_TRANS       PACKAGE TEST_TRANS      CONNECTED TO MODEL TEST_TRANS       PACKAGE RCHA             ON UNIT   1016 AT TIME STEP      1, STRESS PERIOD     40
 UBDSV06 SAVING              CHD IN MODEL TEST_TRANS       PACKAGE TEST_TRANS      CONNECTED TO MODEL TEST_TRANS       PACKAGE CHD              ON UNIT   1016 AT TIME STEP      1, STRESS PERIOD     40
1
  HEAD IN LAYER   1 AT END OF TIME STEP   1 IN STRESS PERIOD   40
  ---------------------------------------------------------------------------

            1           2           3           4           5           6           7           8           9          10
           11          12          13          14          15          16          17          18          19          20
           21          22          23          24          25          26          27          28          29          30
 ........................................................................................................................
   1    28.11       28.10       28.09       28.08       28.06       28.03       28.00       27.96       27.92       27.87    
        27.82       27.76       27.69       27.62       27.54       27.45       27.35       27.25       27.14       27.02    
        26.89       26.75       26.60       26.44       26.25       26.06       25.84       25.60       25.34       25.05    
   2    28.11       28.10       28.09       28.08       28.06       28.03       28.00       27.96       27.92       27.87    
        27.82       27.76       27.69       27.62       27.54       27.45       27.35       27.25       27.14       27.02    
        26.89       26.75       26.60       26.44       26.25       26.06       25.84       25.60       25.34       25.05    
   3    28.11       28.10       28.09       28.08       28.06       28.03       28.00       27.96       27.92       27.87    
        27.82       27.76       27.69       27.62       27.54       27.45       27.35       27.25       27.14       27.02    
        26.89       26.75       26.60       26.44       26.25       26.06       25.84       25.60       25.34       25.05    
   4    28.11       28.10       28.09       28.08       28.06       28.03       28.00       27.96       27.92       27.87    
        27.82       27.76       27.69       27.62       27.54       27.45       27.35       27.25       27.14       27.02    
        26.89       26.75       26.60       26.44       26.25       26.06       25.84       25.60       25.34       25.05    
   5    28.11       28.10       28.09       28.08       28.06       28.03       28.00       27.96       27.92       27.87    
        27.82       27.76       27.69       27.62       27.54       27.45       27.35       27.25       27.14       27.02    
        26.89       26.75       26.60       26.44       26.25       26.06       25.84       25.60       25.34       25.05    
   6    28.11       28.10       28.09       28.08       28.06       28.03       28.00       27.96       27.92       27.87    
        27.82       27.76       27.69       27.62       27.54       27.45       27.35       27.25       27.14       27.02    
        26.89       26.75       26.60       26.44       26.25       26.06       25.84       25.60       25.34       25.05    
   7    28.11       28.10       28.09       28.08       28.06       28.03       28.00       27.96       27.92       27.87    
        27.82       27.76       27.69       27.62       27.54       27.45       27.35       27.25       27.14       27.02    
        26.89       26.75       26.60       26.44       26.25       26.06       25.84       25.60       25.34       25.05    
   8    28.11       28.10       28.09       28.08       28.06       28.03       28.00       27.96       27.92       27.87    
        27.82       27.76       27.69       27.62       27.54       27.45       27.35       27.25       27.14       27.02    
        26.89       26.75       26.60       26.44       26.25       26.06       25.84       25.60       25.34       25.05    
   9    28.11       28.10       28.09       28.08       28.06       28.03       28.00       27.96       27.92       27.87    
        27.82       27.76       27.69       27.62       27.54       27.45       27.35       27.25       27.14       27.02    
        26.89       26.75       26.60       26.44       26.25       26.06       25.84       25.60       25.34       25.05    
  10    28.11       28.10       28.09       28.08       28.06       28.03       28.00       27.96       27.92       27.87    
        27.82       27.76       27.69       27.62       27.54       27.45       27.35       27.25       27.14       27.02    
        26.89       26.75       26.60       26.44       26.25       26.06       25.84       25.60       25.34       25.05    
  11    28.11       28.10       28.09       28.08       28.06       28.03       28.00       27.96       27.92       27.87    
        27.82       27.76       27.69       27.62       27.54       27.45       27.35       27.25       27.14       27.02    
        26.89       26.75       26.60       26.44       26.25       26.06       25.84       25.60       25.34       25.05    
  12    28.11       28.10       28.09       28.08       28.06       28.03       28.00       27.96       27.92       27.87    
        27.82       27.76       27.69       27.62       27.54       27.45       27.35       27.25       27.14       27.02    
        26.89       26.75       26.60       26.44       26.25       26.06       25.84       25.60       25.34       25.05    
  13    28.11       28.10       28.09       28.08       28.06       28.03       28.00       27.96       27.92       27.87    
        27.82       27.76       27.69       27.62       27.54       27.45       27.35       27.25       27.14       27.02    
        26.89       26.75       26.60       26.44       26.25       26.06       25.84       25.60       25.34       25.05    
  14    28.11       28.10       28.09       28.08       28.06       28.03       28.00       27.96       27.92       27.87    
        27.82       27.76       27.69       27.62       27.54       27.45       27.35       27.25       27.14       27.02    
        26.89       26.75       26.60       26.44       26.25       26.06       25.84       25.60       25.34       25.05    
  15    28.11       28.10       28.09       28.08       28.06       28.03       28.00       27.96       27.92       27.87    
        27.82       27.76       27.69       27.62       27.54       27.45       27.35       27.25       27.14       27.02    
        26.89       26.75       26.60       26.44       26.25       26.06       25.84       25.60       25.34       25.05    
  16    28.11       28.10       28.09       28.08       28.06       28.03       28.00       27.96       27.92       27.87    
        27.82       27.76       27.69       27.62       27.54       27.45       27.35       27.25       27.14       27.02    
        26.89       26.75       26.60       26.44       26.25       26.06       25.84       25.60       25.34       25.05    
  17    28.11       28.10       28.09       28.08       28.06       28.03       28.00       27.96       27.92       27.87    
        27.82       27.76       27.69       27.62       27.54       27.45       27.35       27.25       27.14       27.02    
        26.89       26.75       26.60       26.44       26.25       26.06       25.84       25.60       25.34       25.05    
  18    28.11       28.10       28.09       28.08       28.06       28.03       28.00       27.96       27.92       27.87    
        27.82       27.76       27.69       27.62       27.54       27.45       27.35       27.25       27.14       27.02    
        26.89       26.75       26.60       26.44       26.25       26.06       25.84       25.60       25.34       25.05    
  19    28.11       28.10       28.09       28.08       28.06       28.03       28.00       27.96       27.92       27.87    
        27.82       27.76       27.69       27.62       27.54       27.45       27.35       27.25       27.14       27.02    
        26.89       26.75       26.60       26.44       26.25       26.06       25.84       25.60       25.34       25.05    
  20    28.11       28.10       28.09       28.08       28.06       28.03       28.00       27.96       27.92       27.87    
        27.82       27.76       27.69       27.62       27.54       27.45       27.35       27.25       27.14       27.02    
        26.89       26.75       26.60       26.44       26.25       26.06       25.84       25.60       25.34       25.05    
  21    28.11       28.10       28.09       28.08       28.06       28.03       28.00       27.96       27.92       27.87    
        27.82       27.76       27.69       27.62       27.54       27.45       27.35       27.25       27.14       27.02    
        26.89       26.75       26.60       26.44       26.25       26.06       25.84       25.60       25.34       25.05    
  22    28.11       28.10       28.09       28.08       28.06       28.03       28.00       27.96       27.92       27.87    
        27.82       27.76       27.69       27.62       27.54       27.45       27.35       27.25       27.14       27.02    
        26.89       26.75       26.60       26.44       26.25       26.06       25.84       25.60       25.34       25.05    
  23    28.11       28.10       28.09       28.08       28.06       28.03       28.00       27.96       27.92       27.87    
        27.82       27.76       27.69       27.62       27.54       27.45       27.35       27.25       27.14       27.02    
        26.89       26.75       26.60       26.44       26.25       26.06       25.84       25.60       25.34       25.05    
  24    28.11       28.10       28.09       28.08       28.06       28.03       28.00       27.96       27.92       27.87    
        27.82       27.76       27.69       27.62       27.54       27.45       27.35       27.25       27.14       27.02    
        26.89       26.75       26.60       26.44       26.25       26.06       25.84       25.60       25.34       25.05    
  25    28.11       28.10       28.09       28.08       28.06       28.03       28.00       27.96       27.92       27.87    
        27.82       27.76       27.69       27.62       27.54       27.45       27.35       27.25       27.14       27.02    
        26.89       26.75       26.60       26.44       26.25       26.06       25.84       25.60       25.34       25.05    
  26    28.11       28.10       28.09       28.08       28.06       28.03       28.00       27.96       27.92       27.87    
        27.82       27.76       27.69       27.62       27.54       27.45       27.35       27.25       27.14       27.02    
        26.89       26.75       26.60       26.44       26.25       26.06       25.84       25.60       25.34       25.05    
  27    28.11       28.10       28.09       28.08       28.06       28.03       28.00       27.96       27.92       27.87    
        27.82       27.76       27.69       27.62       27.54       27.45       27.35       27.25       27.14       27.02    
        26.89       26.75       26.60       26.44       26.25       26.06       25.84       25.60       25.34       25.05    
  28    28.11       28.10       28.09       28.08       28.06       28.03       28.00       27.96       27.92       27.87    
        27.82       27.76       27.69       27.62       27.54       27.45       27.35       27.25       27.14       27.02    
        26.89       26.75       26.60       26.44       26.25       26.06       25.84       25.60       25.34       25.05    
  29    28.11       28.10       28.09       28.08       28.06       28.03       28.00       27.96       27.92       27.87    
        27.82       27.76       27.69       27.62       27.54       27.45       27.35       27.25       27.14       27.02    
        26.89       26.75       26.60       26.44       26.25       26.06       25.84       25.60       25.34       25.05    
  30    28.11       28.10       28.09       28.08       28.06       28.03       28.00       27.96       27.92       27.87    
        27.82       27.76       27.69       27.62       27.54       27.45       27.35       27.25       27.14       27.02    
        26.89       26.75       26.60       26.44       26.25       26.06       25.84       25.60       25.34       25.05    

 HEAD WILL BE SAVED ON UNIT 1017 AT END OF TIME STEP    1, STRESS PERIOD   40



         TIME SUMMARY AT END OF TIME STEP    1 IN STRESS PERIOD   40
                    SECONDS     MINUTES      HOURS       DAYS        YEARS
                    -----------------------------------------------------------
   TIME STEP LENGTH 2.59200E+05  4320.0      72.000      3.0000     8.21355E-03
 STRESS PERIOD TIME 2.59200E+05  4320.0      72.000      3.0000     8.21355E-03
         TOTAL TIME 9.88416E+07 1.64736E+06  27456.      1144.0      3.1321    
 UBDSV1 SAVING           STO-SS ON UNIT   1016 AT TIME STEP      2, STRESS PERIOD     40
 UBDSV1 SAVING           STO-SY ON UNIT   1016 AT TIME STEP      2, STRESS PERIOD     40
 UBDSV1 SAVING     FLOW-JA-FACE ON UNIT   1016 AT TIME STEP      2, STRESS PERIOD     40
 UBDSV06 SAVING              RCH IN MODEL TEST_TRANS       PACKAGE TEST_TRANS      CONNECTED TO MODEL TEST_TRANS       PACKAGE RCHA             ON UNIT   1016 AT TIME STEP      2, STRESS PERIOD     40
 UBDSV06 SAVING              CHD IN MODEL TEST_TRANS       PACKAGE TEST_TRANS      CONNECTED TO MODEL TEST_TRANS       PACKAGE CHD              ON UNIT   1016 AT TIME STEP      2, STRESS PERIOD     40

 HEAD WILL BE SAVED ON UNIT 1017 AT END OF TIME STEP    2, STRESS PERIOD   40
 UBDSV1 SAVING           STO-SS ON UNIT   1016 AT TIME STEP      3, STRESS PERIOD     40
 UBDSV1 SAVING           STO-SY ON UNIT   1016 AT TIME STEP      3, STRESS PERIOD     40
 UBDSV1 SAVING     FLOW-JA-FACE ON UNIT   1016 AT TIME STEP      3, STRESS PERIOD     40
 UBDSV06 SAVING              RCH IN MODEL TEST_TRANS       PACKAGE TEST_TRANS      CONNECTED TO MODEL TEST_TRANS       PACKAGE RCHA             ON UNIT   1016 AT TIME STEP      3, STRESS PERIOD     40
 UBDSV06 SAVING              CHD IN MODEL TEST_TRANS       PACKAGE TEST_TRANS      CONNECTED TO MODEL TEST_TRANS       PACKAGE CHD              ON UNIT   1016 AT TIME STEP      3, STRESS PERIOD     40

 HEAD WILL BE SAVED ON UNIT 1017 AT END OF TIME STEP    3, STRESS PERIOD   40
 UBDSV1 SAVING           STO-SS ON UNIT   1016 AT TIME STEP      4, STRESS PERIOD     40
 UBDSV1 SAVING           STO-SY ON UNIT   1016 AT TIME STEP      4, STRESS PERIOD     40
 UBDSV1 SAVING     FLOW-JA-FACE ON UNIT   1016 AT TIME STEP      4, STRESS PERIOD     40
 UBDSV06 SAVING              RCH IN MODEL TEST_TRANS       PACKAGE TEST_TRANS      CONNECTED TO MODEL TEST_TRANS       PACKAGE RCHA             ON UNIT   1016 AT TIME STEP      4, STRESS PERIOD     40
 UBDSV06 SAVING              CHD IN MODEL TEST_TRANS       PACKAGE TEST_TRANS      CONNECTED TO MODEL TEST_TRANS       PACKAGE CHD              ON UNIT   1016 AT TIME STEP      4, STRESS PERIOD     40

 HEAD WILL BE SAVED ON UNIT 1017 AT END OF TIME STEP    4, STRESS PERIOD   40
 UBDSV1 SAVING           STO-SS ON UNIT   1016 AT TIME STEP      5, STRESS PERIOD     40
 UBDSV1 SAVING           STO-SY ON UNIT   1016 AT TIME STEP      5, STRESS PERIOD     40
 UBDSV1 SAVING     FLOW-JA-FACE ON UNIT   1016 AT TIME STEP      5, STRESS PERIOD     40
 UBDSV06 SAVING              RCH IN MODEL TEST_TRANS       PACKAGE TEST_TRANS      CONNECTED TO MODEL TEST_TRANS       PACKAGE RCHA             ON UNIT   1016 AT TIME STEP      5, STRESS PERIOD     40
 UBDSV06 SAVING              CHD IN MODEL TEST_TRANS       PACKAGE TEST_TRANS      CONNECTED TO MODEL TEST_TRANS       PACKAGE CHD              ON UNIT   1016 AT TIME STEP      5, STRESS PERIOD     40

 HEAD WILL BE SAVED ON UNIT 1017 AT END OF TIME STEP    5, STRESS PERIOD   40
 UBDSV1 SAVING           STO-SS ON UNIT   1016 AT TIME STEP      6, STRESS PERIOD     40
 UBDSV1 SAVING           STO-SY ON UNIT   1016 AT TIME STEP      6, STRESS PERIOD     40
 UBDSV1 SAVING     FLOW-JA-FACE ON UNIT   1016 AT TIME STEP      6, STRESS PERIOD     40
 UBDSV06 SAVING              RCH IN MODEL TEST_TRANS       PACKAGE TEST_TRANS      CONNECTED TO MODEL TEST_TRANS       PACKAGE RCHA             ON UNIT   1016 AT TIME STEP      6, STRESS PERIOD     40
 UBDSV06 SAVING              CHD IN MODEL TEST_TRANS       PACKAGE TEST_TRANS      CONNECTED TO MODEL TEST_TRANS       PACKAGE CHD              ON UNIT   1016 AT TIME STEP      6, STRESS PERIOD     40

 HEAD WILL BE SAVED ON UNIT 1017 AT END OF TIME STEP    6, STRESS PERIOD   40
 UBDSV1 SAVING           STO-SS ON UNIT   1016 AT TIME STEP      7, STRESS PERIOD     40
 UBDSV1 SAVING           STO-SY ON UNIT   1016 AT TIME STEP      7, STRESS PERIOD     40
 UBDSV1 SAVING     FLOW-JA-FACE ON UNIT   1016 AT TIME STEP      7, STRESS PERIOD     40
 UBDSV06 SAVING              RCH IN MODEL TEST_TRANS       PACKAGE TEST_TRANS      CONNECTED TO MODEL TEST_TRANS       PACKAGE RCHA             ON UNIT   1016 AT TIME STEP      7, STRESS PERIOD     40
 UBDSV06 SAVING              CHD IN MODEL TEST_TRANS       PACKAGE TEST_TRANS      CONNECTED TO MODEL TEST_TRANS       PACKAGE CHD              ON UNIT   1016 AT TIME STEP      7, STRESS PERIOD     40

 HEAD WILL BE SAVED ON UNIT 1017 AT END OF TIME STEP    7, STRESS PERIOD   40
 UBDSV1 SAVING           STO-SS ON UNIT   1016 AT TIME STEP      8, STRESS PERIOD     40
 UBDSV1 SAVING           STO-SY ON UNIT   1016 AT TIME STEP      8, STRESS PERIOD     40
 UBDSV1 SAVING     FLOW-JA-FACE ON UNIT   1016 AT TIME STEP      8, STRESS PERIOD     40
 UBDSV06 SAVING              RCH IN MODEL TEST_TRANS       PACKAGE TEST_TRANS      CONNECTED TO MODEL TEST_TRANS       PACKAGE RCHA             ON UNIT   1016 AT TIME STEP      8, STRESS PERIOD     40
 UBDSV06 SAVING              CHD IN MODEL TEST_TRANS       PACKAGE TEST_TRANS      CONNECTED TO MODEL TEST_TRANS       PACKAGE CHD              ON UNIT   1016 AT TIME STEP      8, STRESS PERIOD     40

 HEAD WILL BE SAVED ON UNIT 1017 AT END OF TIME STEP    8, STRESS PERIOD   40
 UBDSV1 SAVING           STO-SS ON UNIT   1016 AT TIME STEP      9, STRESS PERIOD     40
 UBDSV1 SAVING           STO-SY ON UNIT   1016 AT TIME STEP      9, STRESS PERIOD     40
 UBDSV1 SAVING     FLOW-JA-FACE ON UNIT   1016 AT TIME STEP      9, STRESS PERIOD     40
 UBDSV06 SAVING              RCH IN MODEL TEST_TRANS       PACKAGE TEST_TRANS      CONNECTED TO MODEL TEST_TRANS       PACKAGE RCHA             ON UNIT   1016 AT TIME STEP      9, STRESS PERIOD     40
 UBDSV06 SAVING              CHD IN MODEL TEST_TRANS       PACKAGE TEST_TRANS      CONNECTED TO MODEL TEST_TRANS       PACKAGE CHD              ON UNIT   1016 AT TIME STEP      9, STRESS PERIOD     40

 HEAD WILL BE SAVED ON UNIT 1017 AT END OF TIME STEP    9, STRESS PERIOD   40
 UBDSV1 SAVING           STO-SS ON UNIT   1016 AT TIME STEP     10, STRESS PERIOD     40
 UBDSV1 SAVING           STO-SY ON UNIT   1016 AT TIME STEP     10, STRESS PERIOD     40
 UBDSV1 SAVING     FLOW-JA-FACE ON UNIT   1016 AT TIME STEP     10, STRESS PERIOD     40
 UBDSV06 SAVING              RCH IN MODEL TEST_TRANS       PACKAGE TEST_TRANS      CONNECTED TO MODEL TEST_TRANS       PACKAGE RCHA             ON UNIT   1016 AT TIME STEP     10, STRESS PERIOD     40
 UBDSV06 SAVING              CHD IN MODEL TEST_TRANS       PACKAGE TEST_TRANS      CONNECTED TO MODEL TEST_TRANS       PACKAGE CHD              ON UNIT   1016 AT TIME STEP     10, STRESS PERIOD     40
1
  HEAD IN LAYER   1 AT END OF TIME STEP  10 IN STRESS PERIOD   40
  ---------------------------------------------------------------------------

            1           2           3           4           5           6           7           8           9          10
           11          12          13          14          15          16          17          18          19          20
           21          22          23          24          25          26          27          28          29          30
 ........................................................................................................................
   1    28.03       28.02       28.01       28.00       27.98       27.95       27.92       27.89       27.85       27.80    
        27.75       27.69       27.62       27.55       27.48       27.39       27.30       27.20       27.10       26.98    
        26.86       26.72       26.58       26.42       26.25       26.06       25.85       25.62       25.35       25.05    
   2    28.03       28.02       28.01       28.00       27.98       27.95       27.92       27.89       27.85       27.80    
        27.75       27.69       27.62       27.55       27.48       27.39       27.30       27.20       27.10       26.98    
        26.86       26.72       26.58       26.42       26.25       26.06       25.85       25.62       25.35       25.05    
   3    28.03       28.02       28.01       28.00       27.98       27.95       27.92       27.89       27.85       27.80    
        27.75       27.69       27.62       27.55       27.48       27.39       27.30       27.20       27.10       26.98    
        26.86       26.72       26.58       26.42       26.25       26.06       25.85       25.62       25.35       25.05    
   4    28.03       28.02       28.01       28.00       27.98       27.95       27.92       27.89       27.85       27.80    
        27.75       27.69       27.62       27.55       27.48       27.39       27.30       27.20       27.10       26.98    
        26.86       26.72       26.58       26.42       26.25       26.06       25.85       25.62       25.35       25.05    
   5    28.03       28.02       28.01       28.00       27.98       27.95       27.92       27.89       27.85       27.80    
        27.75       27.69       27.62       27.55       27.48       27.39       27.30       27.20       27.10       26.98    
        26.86       26.72       26.58       26.42       26.25       26.06       25.85       25.62       25.35       25.05    
   6    28.03       28.02       28.01       28.00       27.98       27.95       27.92       27.89       27.85       27.80    
        27.75       27.69       27.62       27.55       27.48       27.39       27.30       27.20       27.10       26.98    
        26.86       26.72       26.58       26.42       26.25       26.06       25.85       25.62       25.35       25.05    
   7    28.03       28.02       28.01       28.00       27.98       27.95       27.92       27.89       27.85       27.80    
        27.75       27.69       27.62       27.55       27.48       27.39       27.30       27.20       27.10       26.98    
        26.86       26.72       26.58       26.42       26.25       26.06       25.85       25.62       25.35       25.05    
   8    28.03       28.02       28.01       28.00       27.98       27.95       27.92       27.89       27.85       27.80    
        27.75       27.69       27.62       27.55       27.48       27.39       27.30       27.20       27.10       26.98    
        26.86       26.72       26.58       26.42       26.25       26.06       25.85       25.62       25.35       25.05    
   9    28.03       28.02       28.01       28.00       27.98       27.95       27.92       27.89       27.85       27.80    
        27.75       27.69       27.62       27.55       27.48       27.39       27.30       27.20       27.10       26.98    
        26.86       26.72       26.58       26.42       26.25       26.06       25.85       25.62       25.35       25.05    
  10    28.03       28.02       28.01       28.00       27.98       27.95       27.92       27.89       27.85       27.80    
        27.75       27.69       27.62       27.55       27.48       27.39       27.30       27.20       27.10       26.98    
        26.86       26.72       26.58       26.42       26.25       26.06       25.85       25.62       25.35       25.05    
  11    28.03       28.02       28.01       28.00       27.98       27.95       27.92       27.89       27.85       27.80    
        27.75       27.69       27.62       27.55       27.48       27.39       27.30       27.20       27.10       26.98    
        26.86       26.72       26.58       26.42       26.25       26.06       25.85       25.62       25.35       25.05    
  12    28.03       28.02       28.01       28.00       27.98       27.95       27.92       27.89       27.85       27.80    
        27.75       27.69       27.62       27.55       27.48       27.39       27.30       27.20       27.10       26.98    
        26.86       26.72       26.58       26.42       26.25       26.06       25.85       25.62       25.35       25.05    
  13    28.03       28.02       28.01       28.00       27.98       27.95       27.92       27.89       27.85       27.80    
        27.75       27.69       27.62       27.55       27.48       27.39       27.30       27.20       27.10       26.98    
        26.86       26.72       26.58       26.42       26.25       26.06       25.85       25.62       25.35       25.05    
  14    28.03       28.02       28.01       28.00       27.98       27.95       27.92       27.89       27.85       27.80    
        27.75       27.69       27.62       27.55       27.48       27.39       27.30       27.20       27.10       26.98    
        26.86       26.72       26.58       26.42       26.25       26.06       25.85       25.62       25.35       25.05    
  15    28.03       28.02       28.01       28.00       27.98       27.95       27.92       27.89       27.85       27.80    
        27.75       27.69       27.62       27.55       27.48       27.39       27.30       27.20       27.10       26.98    
        26.86       26.72       26.58       26.42       26.25       26.06       25.85       25.62       25.35       25.05    
  16    28.03       28.02       28.01       28.00       27.98       27.95       27.92       27.89       27.85       27.80    
        27.75       27.69       27.62       27.55       27.48       27.39       27.30       27.20       27.10       26.98    
        26.86       26.72       26.58       26.42       26.25       26.06       25.85       25.62       25.35       25.05    
  17    28.03       28.02       28.01       28.00       27.98       27.95       27.92       27.89       27.85       27.80    
        27.75       27.69       27.62       27.55       27.48       27.39       27.30       27.20       27.10       26.98    
        26.86       26.72       26.58       26.42       26.25       26.06       25.85       25.62       25.35       25.05    
  18    28.03       28.02       28.01       28.00       27.98       27.95       27.92       27.89       27.85       27.80    
        27.75       27.69       27.62       27.55       27.48       27.39       27.30       27.20       27.10       26.98    
        26.86       26.72       26.58       26.42       26.25       26.06       25.85       25.62       25.35       25.05    
  19    28.03       28.02       28.01       28.00       27.98       27.95       27.92       27.89       27.85       27.80    
        27.75       27.69       27.62       27.55       27.48       27.39       27.30       27.20       27.10       26.98    
        26.86       26.72       26.58       26.42       26.25       26.06       25.85       25.62       25.35       25.05    
  20    28.03       28.02       28.01       28.00       27.98       27.95       27.92       27.89       27.85       27.80    
        27.75       27.69       27.62       27.55       27.48       27.39       27.30       27.20       27.10       26.98    
        26.86       26.72       26.58       26.42       26.25       26.06       25.85       25.62       25.35       25.05    
  21    28.03       28.02       28.01       28.00       27.98       27.95       27.92       27.89       27.85       27.80    
        27.75       27.69       27.62       27.55       27.48       27.39       27.30       27.20       27.10       26.98    
        26.86       26.72       26.58       26.42       26.25       26.06       25.85       25.62       25.35       25.05    
  22    28.03       28.02       28.01       28.00       27.98       27.95       27.92       27.89       27.85       27.80    
        27.75       27.69       27.62       27.55       27.48       27.39       27.30       27.20       27.10       26.98    
        26.86       26.72       26.58       26.42       26.25       26.06       25.85       25.62       25.35       25.05    
  23    28.03       28.02       28.01       28.00       27.98       27.95       27.92       27.89       27.85       27.80    
        27.75       27.69       27.62       27.55       27.48       27.39       27.30       27.20       27.10       26.98    
        26.86       26.72       26.58       26.42       26.25       26.06       25.85       25.62       25.35       25.05    
  24    28.03       28.02       28.01       28.00       27.98       27.95       27.92       27.89       27.85       27.80    
        27.75       27.69       27.62       27.55       27.48       27.39       27.30       27.20       27.10       26.98    
        26.86       26.72       26.58       26.42       26.25       26.06       25.85       25.62       25.35       25.05    
  25    28.03       28.02       28.01       28.00       27.98       27.95       27.92       27.89       27.85       27.80    
        27.75       27.69       27.62       27.55       27.48       27.39       27.30       27.20       27.10       26.98    
        26.86       26.72       26.58       26.42       26.25       26.06       25.85       25.62       25.35       25.05    
  26    28.03       28.02       28.01       28.00       27.98       27.95       27.92       27.89       27.85       27.80    
        27.75       27.69       27.62       27.55       27.48       27.39       27.30       27.20       27.10       26.98    
        26.86       26.72       26.58       26.42       26.25       26.06       25.85       25.62       25.35       25.05    
  27    28.03       28.02       28.01       28.00       27.98       27.95       27.92       27.89       27.85       27.80    
        27.75       27.69       27.62       27.55       27.48       27.39       27.30       27.20       27.10       26.98    
        26.86       26.72       26.58       26.42       26.25       26.06       25.85       25.62       25.35       25.05    
  28    28.03       28.02       28.01       28.00       27.98       27.95       27.92       27.89       27.85       27.80    
        27.75       27.69       27.62       27.55       27.48       27.39       27.30       27.20       27.10       26.98    
        26.86       26.72       26.58       26.42       26.25       26.06       25.85       25.62       25.35       25.05    
  29    28.03       28.02       28.01       28.00       27.98       27.95       27.92       27.89       27.85       27.80    
        27.75       27.69       27.62       27.55       27.48       27.39       27.30       27.20       27.10       26.98    
        26.86       26.72       26.58       26.42       26.25       26.06       25.85       25.62       25.35       25.05    
  30    28.03       28.02       28.01       28.00       27.98       27.95       27.92       27.89       27.85       27.80    
        27.75       27.69       27.62       27.55       27.48       27.39       27.30       27.20       27.10       26.98    
        26.86       26.72       26.58       26.42       26.25       26.06       25.85       25.62       25.35       25.05    

 HEAD WILL BE SAVED ON UNIT 1017 AT END OF TIME STEP   10, STRESS PERIOD   40


  VOLUME BUDGET FOR ENTIRE MODEL AT END OF TIME STEP   10, STRESS PERIOD  40
  ---------------------------------------------------------------------------------------------------

     CUMULATIVE VOLUME      L**3       RATES FOR THIS TIME STEP      L**3/T          PACKAGE NAME    
     ------------------                 ------------------------                     ----------------

           IN:                                      IN:
           ---                                      ---
              STO-SS =          61.8793                STO-SS =       5.0686E-02     STORAGE         
              STO-SY =       39988.0640                STO-SY =          31.5540     STORAGE         
                 RCH =      198669.9463                   RCH =         143.0141     RCHA            
                 CHD =        3520.9028                   CHD =           0.0000     CHD             

            TOTAL IN =      242240.7923              TOTAL IN =         174.6188

          OUT:                                     OUT:
          ----                                     ----
              STO-SS =          55.8196                STO-SS =           0.0000     STORAGE         
              STO-SY =       36369.6349                STO-SY =           0.0000     STORAGE         
                 RCH =           0.0000                   RCH =           0.0000     RCHA            
                 CHD =      205814.8518                   CHD =         174.5948     CHD             

           TOTAL OUT =      242240.3062             TOTAL OUT =         174.5948

            IN - OUT =           0.4861              IN - OUT =       2.3961E-02

 PERCENT DISCREPANCY =           0.00     PERCENT DISCREPANCY =           0.01




         TIME SUMMARY AT END OF TIME STEP   10 IN STRESS PERIOD   40
                    SECONDS     MINUTES      HOURS       DAYS        YEARS
                    -----------------------------------------------------------
   TIME STEP LENGTH 2.59200E+05  4320.0      72.000      3.0000     8.21355E-03
 STRESS PERIOD TIME 2.59200E+06  43200.      720.00      30.000     8.21355E-02
         TOTAL TIME 1.01174E+08 1.68624E+06  28104.      1171.0      3.2060    

 OUTPUT CONTROL FOR STRESS PERIOD 41 IS REPEATED USING SETTINGS FROM A PREVIOUS STRESS PERIOD.


 STRESS PERIOD 41 IS TRANSIENT


                 RECHARGE =  0.1232880E-02
 UBDSV1 SAVING           STO-SS ON UNIT   1016 AT TIME STEP      1, STRESS PERIOD     41
 UBDSV1 SAVING           STO-SY ON UNIT   1016 AT TIME STEP      1, STRESS PERIOD     41
 UBDSV1 SAVING     FLOW-JA-FACE ON UNIT   1016 AT TIME STEP      1, STRESS PERIOD     41
 UBDSV06 SAVING              RCH IN MODEL TEST_TRANS       PACKAGE TEST_TRANS      CONNECTED TO MODEL TEST_TRANS       PACKAGE RCHA             ON UNIT   1016 AT TIME STEP      1, STRESS PERIOD     41
 UBDSV06 SAVING              CHD IN MODEL TEST_TRANS       PACKAGE TEST_TRANS      CONNECTED TO MODEL TEST_TRANS       PACKAGE CHD              ON UNIT   1016 AT TIME STEP      1, STRESS PERIOD     41
1
  HEAD IN LAYER   1 AT END OF TIME STEP   1 IN STRESS PERIOD   41
  ---------------------------------------------------------------------------

            1           2           3           4           5           6           7           8           9          10
           11          12          13          14          15          16          17          18          19          20
           21          22          23          24          25          26          27          28          29          30
 ........................................................................................................................
   1    28.02       28.01       28.00       27.98       27.96       27.94       27.91       27.87       27.83       27.78    
        27.73       27.67       27.61       27.54       27.46       27.38       27.29       27.19       27.08       26.97    
        26.85       26.71       26.57       26.41       26.24       26.06       25.86       25.63       25.39       25.13    
   2    28.02       28.01       28.00       27.98       27.96       27.94       27.91       27.87       27.83       27.78    
        27.73       27.67       27.61       27.54       27.46       27.38       27.29       27.19       27.08       26.97    
        26.85       26.71       26.57       26.41       26.24       26.06       25.86       25.63       25.39       25.13    
   3    28.02       28.01       28.00       27.98       27.96       27.94       27.91       27.87       27.83       27.78    
        27.73       27.67       27.61       27.54       27.46       27.38       27.29       27.19       27.08       26.97    
        26.85       26.71       26.57       26.41       26.24       26.06       25.86       25.63       25.39       25.13    
   4    28.02       28.01       28.00       27.98       27.96       27.94       27.91       27.87       27.83       27.78    
        27.73       27.67       27.61       27.54       27.46       27.38       27.29       27.19       27.08       26.97    
        26.85       26.71       26.57       26.41       26.24       26.06       25.86       25.63       25.39       25.13    
   5    28.02       28.01       28.00       27.98       27.96       27.94       27.91       27.87       27.83       27.78    
        27.73       27.67       27.61       27.54       27.46       27.38       27.29       27.19       27.08       26.97    
        26.85       26.71       26.57       26.41       26.24       26.06       25.86       25.63       25.39       25.13    
   6    28.02       28.01       28.00       27.98       27.96       27.94       27.91       27.87       27.83       27.78    
        27.73       27.67       27.61       27.54       27.46       27.38       27.29       27.19       27.08       26.97    
        26.85       26.71       26.57       26.41       26.24       26.06       25.86       25.63       25.39       25.13    
   7    28.02       28.01       28.00       27.98       27.96       27.94       27.91       27.87       27.83       27.78    
        27.73       27.67       27.61       27.54       27.46       27.38       27.29       27.19       27.08       26.97    
        26.85       26.71       26.57       26.41       26.24       26.06       25.86       25.63       25.39       25.13    
   8    28.02       28.01       28.00       27.98       27.96       27.94       27.91       27.87       27.83       27.78    
        27.73       27.67       27.61       27.54       27.46       27.38       27.29       27.19       27.08       26.97    
        26.85       26.71       26.57       26.41       26.24       26.06       25.86       25.63       25.39       25.13    
   9    28.02       28.01       28.00       27.98       27.96       27.94       27.91       27.87       27.83       27.78    
        27.73       27.67       27.61       27.54       27.46       27.38       27.29       27.19       27.08       26.97    
        26.85       26.71       26.57       26.41       26.24       26.06       25.86       25.63       25.39       25.13    
  10    28.02       28.01       28.00       27.98       27.96       27.94       27.91       27.87       27.83       27.78    
        27.73       27.67       27.61       27.54       27.46       27.38       27.29       27.19       27.08       26.97    
        26.85       26.71       26.57       26.41       26.24       26.06       25.86       25.63       25.39       25.13    
  11    28.02       28.01       28.00       27.98       27.96       27.94       27.91       27.87       27.83       27.78    
        27.73       27.67       27.61       27.54       27.46       27.38       27.29       27.19       27.08       26.97    
        26.85       26.71       26.57       26.41       26.24       26.06       25.86       25.63       25.39       25.13    
  12    28.02       28.01       28.00       27.98       27.96       27.94       27.91       27.87       27.83       27.78    
        27.73       27.67       27.61       27.54       27.46       27.38       27.29       27.19       27.08       26.97    
        26.85       26.71       26.57       26.41       26.24       26.06       25.86       25.63       25.39       25.13    
  13    28.02       28.01       28.00       27.98       27.96       27.94       27.91       27.87       27.83       27.78    
        27.73       27.67       27.61       27.54       27.46       27.38       27.29       27.19       27.08       26.97    
        26.85       26.71       26.57       26.41       26.24       26.06       25.86       25.63       25.39       25.13    
  14    28.02       28.01       28.00       27.98       27.96       27.94       27.91       27.87       27.83       27.78    
        27.73       27.67       27.61       27.54       27.46       27.38       27.29       27.19       27.08       26.97    
        26.85       26.71       26.57       26.41       26.24       26.06       25.86       25.63       25.39       25.13    
  15    28.02       28.01       28.00       27.98       27.96       27.94       27.91       27.87       27.83       27.78    
        27.73       27.67       27.61       27.54       27.46       27.38       27.29       27.19       27.08       26.97    
        26.85       26.71       26.57       26.41       26.24       26.06       25.86       25.63       25.39       25.13    
  16    28.02       28.01       28.00       27.98       27.96       27.94       27.91       27.87       27.83       27.78    
        27.73       27.67       27.61       27.54       27.46       27.38       27.29       27.19       27.08       26.97    
        26.85       26.71       26.57       26.41       26.24       26.06       25.86       25.63       25.39       25.13    
  17    28.02       28.01       28.00       27.98       27.96       27.94       27.91       27.87       27.83       27.78    
        27.73       27.67       27.61       27.54       27.46       27.38       27.29       27.19       27.08       26.97    
        26.85       26.71       26.57       26.41       26.24       26.06       25.86       25.63       25.39       25.13    
  18    28.02       28.01       28.00       27.98       27.96       27.94       27.91       27.87       27.83       27.78    
        27.73       27.67       27.61       27.54       27.46       27.38       27.29       27.19       27.08       26.97    
        26.85       26.71       26.57       26.41       26.24       26.06       25.86       25.63       25.39       25.13    
  19    28.02       28.01       28.00       27.98       27.96       27.94       27.91       27.87       27.83       27.78    
        27.73       27.67       27.61       27.54       27.46       27.38       27.29       27.19       27.08       26.97    
        26.85       26.71       26.57       26.41       26.24       26.06       25.86       25.63       25.39       25.13    
  20    28.02       28.01       28.00       27.98       27.96       27.94       27.91       27.87       27.83       27.78    
        27.73       27.67       27.61       27.54       27.46       27.38       27.29       27.19       27.08       26.97    
        26.85       26.71       26.57       26.41       26.24       26.06       25.86       25.63       25.39       25.13    
  21    28.02       28.01       28.00       27.98       27.96       27.94       27.91       27.87       27.83       27.78    
        27.73       27.67       27.61       27.54       27.46       27.38       27.29       27.19       27.08       26.97    
        26.85       26.71       26.57       26.41       26.24       26.06       25.86       25.63       25.39       25.13    
  22    28.02       28.01       28.00       27.98       27.96       27.94       27.91       27.87       27.83       27.78    
        27.73       27.67       27.61       27.54       27.46       27.38       27.29       27.19       27.08       26.97    
        26.85       26.71       26.57       26.41       26.24       26.06       25.86       25.63       25.39       25.13    
  23    28.02       28.01       28.00       27.98       27.96       27.94       27.91       27.87       27.83       27.78    
        27.73       27.67       27.61       27.54       27.46       27.38       27.29       27.19       27.08       26.97    
        26.85       26.71       26.57       26.41       26.24       26.06       25.86       25.63       25.39       25.13    
  24    28.02       28.01       28.00       27.98       27.96       27.94       27.91       27.87       27.83       27.78    
        27.73       27.67       27.61       27.54       27.46       27.38       27.29       27.19       27.08       26.97    
        26.85       26.71       26.57       26.41       26.24       26.06       25.86       25.63       25.39       25.13    
  25    28.02       28.01       28.00       27.98       27.96       27.94       27.91       27.87       27.83       27.78    
        27.73       27.67       27.61       27.54       27.46       27.38       27.29       27.19       27.08       26.97    
        26.85       26.71       26.57       26.41       26.24       26.06       25.86       25.63       25.39       25.13    
  26    28.02       28.01       28.00       27.98       27.96       27.94       27.91       27.87       27.83       27.78    
        27.73       27.67       27.61       27.54       27.46       27.38       27.29       27.19       27.08       26.97    
        26.85       26.71       26.57       26.41       26.24       26.06       25.86       25.63       25.39       25.13    
  27    28.02       28.01       28.00       27.98       27.96       27.94       27.91       27.87       27.83       27.78    
        27.73       27.67       27.61       27.54       27.46       27.38       27.29       27.19       27.08       26.97    
        26.85       26.71       26.57       26.41       26.24       26.06       25.86       25.63       25.39       25.13    
  28    28.02       28.01       28.00       27.98       27.96       27.94       27.91       27.87       27.83       27.78    
        27.73       27.67       27.61       27.54       27.46       27.38       27.29       27.19       27.08       26.97    
        26.85       26.71       26.57       26.41       26.24       26.06       25.86       25.63       25.39       25.13    
  29    28.02       28.01       28.00       27.98       27.96       27.94       27.91       27.87       27.83       27.78    
        27.73       27.67       27.61       27.54       27.46       27.38       27.29       27.19       27.08       26.97    
        26.85       26.71       26.57       26.41       26.24       26.06       25.86       25.63       25.39       25.13    
  30    28.02       28.01       28.00       27.98       27.96       27.94       27.91       27.87       27.83       27.78    
        27.73       27.67       27.61       27.54       27.46       27.38       27.29       27.19       27.08       26.97    
        26.85       26.71       26.57       26.41       26.24       26.06       25.86       25.63       25.39       25.13    

 HEAD WILL BE SAVED ON UNIT 1017 AT END OF TIME STEP    1, STRESS PERIOD   41



         TIME SUMMARY AT END OF TIME STEP    1 IN STRESS PERIOD   41
                    SECONDS     MINUTES      HOURS       DAYS        YEARS
                    -----------------------------------------------------------
   TIME STEP LENGTH 2.59200E+05  4320.0      72.000      3.0000     8.21355E-03
 STRESS PERIOD TIME 2.59200E+05  4320.0      72.000      3.0000     8.21355E-03
         TOTAL TIME 1.01434E+08 1.69056E+06  28176.      1174.0      3.2142    
 UBDSV1 SAVING           STO-SS ON UNIT   1016 AT TIME STEP      2, STRESS PERIOD     41
 UBDSV1 SAVING           STO-SY ON UNIT   1016 AT TIME STEP      2, STRESS PERIOD     41
 UBDSV1 SAVING     FLOW-JA-FACE ON UNIT   1016 AT TIME STEP      2, STRESS PERIOD     41
 UBDSV06 SAVING              RCH IN MODEL TEST_TRANS       PACKAGE TEST_TRANS      CONNECTED TO MODEL TEST_TRANS       PACKAGE RCHA             ON UNIT   1016 AT TIME STEP      2, STRESS PERIOD     41
 UBDSV06 SAVING              CHD IN MODEL TEST_TRANS       PACKAGE TEST_TRANS      CONNECTED TO MODEL TEST_TRANS       PACKAGE CHD              ON UNIT   1016 AT TIME STEP      2, STRESS PERIOD     41

 HEAD WILL BE SAVED ON UNIT 1017 AT END OF TIME STEP    2, STRESS PERIOD   41
 UBDSV1 SAVING           STO-SS ON UNIT   1016 AT TIME STEP      3, STRESS PERIOD     41
 UBDSV1 SAVING           STO-SY ON UNIT   1016 AT TIME STEP      3, STRESS PERIOD     41
 UBDSV1 SAVING     FLOW-JA-FACE ON UNIT   1016 AT TIME STEP      3, STRESS PERIOD     41
 UBDSV06 SAVING              RCH IN MODEL TEST_TRANS       PACKAGE TEST_TRANS      CONNECTED TO MODEL TEST_TRANS       PACKAGE RCHA             ON UNIT   1016 AT TIME STEP      3, STRESS PERIOD     41
 UBDSV06 SAVING              CHD IN MODEL TEST_TRANS       PACKAGE TEST_TRANS      CONNECTED TO MODEL TEST_TRANS       PACKAGE CHD              ON UNIT   1016 AT TIME STEP      3, STRESS PERIOD     41

 HEAD WILL BE SAVED ON UNIT 1017 AT END OF TIME STEP    3, STRESS PERIOD   41
 UBDSV1 SAVING           STO-SS ON UNIT   1016 AT TIME STEP      4, STRESS PERIOD     41
 UBDSV1 SAVING           STO-SY ON UNIT   1016 AT TIME STEP      4, STRESS PERIOD     41
 UBDSV1 SAVING     FLOW-JA-FACE ON UNIT   1016 AT TIME STEP      4, STRESS PERIOD     41
 UBDSV06 SAVING              RCH IN MODEL TEST_TRANS       PACKAGE TEST_TRANS      CONNECTED TO MODEL TEST_TRANS       PACKAGE RCHA             ON UNIT   1016 AT TIME STEP      4, STRESS PERIOD     41
 UBDSV06 SAVING              CHD IN MODEL TEST_TRANS       PACKAGE TEST_TRANS      CONNECTED TO MODEL TEST_TRANS       PACKAGE CHD              ON UNIT   1016 AT TIME STEP      4, STRESS PERIOD     41

 HEAD WILL BE SAVED ON UNIT 1017 AT END OF TIME STEP    4, STRESS PERIOD   41
 UBDSV1 SAVING           STO-SS ON UNIT   1016 AT TIME STEP      5, STRESS PERIOD     41
 UBDSV1 SAVING           STO-SY ON UNIT   1016 AT TIME STEP      5, STRESS PERIOD     41
 UBDSV1 SAVING     FLOW-JA-FACE ON UNIT   1016 AT TIME STEP      5, STRESS PERIOD     41
 UBDSV06 SAVING              RCH IN MODEL TEST_TRANS       PACKAGE TEST_TRANS      CONNECTED TO MODEL TEST_TRANS       PACKAGE RCHA             ON UNIT   1016 AT TIME STEP      5, STRESS PERIOD     41
 UBDSV06 SAVING              CHD IN MODEL TEST_TRANS       PACKAGE TEST_TRANS      CONNECTED TO MODEL TEST_TRANS       PACKAGE CHD              ON UNIT   1016 AT TIME STEP      5, STRESS PERIOD     41

 HEAD WILL BE SAVED ON UNIT 1017 AT END OF TIME STEP    5, STRESS PERIOD   41
 UBDSV1 SAVING           STO-SS ON UNIT   1016 AT TIME STEP      6, STRESS PERIOD     41
 UBDSV1 SAVING           STO-SY ON UNIT   1016 AT TIME STEP      6, STRESS PERIOD     41
 UBDSV1 SAVING     FLOW-JA-FACE ON UNIT   1016 AT TIME STEP      6, STRESS PERIOD     41
 UBDSV06 SAVING              RCH IN MODEL TEST_TRANS       PACKAGE TEST_TRANS      CONNECTED TO MODEL TEST_TRANS       PACKAGE RCHA             ON UNIT   1016 AT TIME STEP      6, STRESS PERIOD     41
 UBDSV06 SAVING              CHD IN MODEL TEST_TRANS       PACKAGE TEST_TRANS      CONNECTED TO MODEL TEST_TRANS       PACKAGE CHD              ON UNIT   1016 AT TIME STEP      6, STRESS PERIOD     41

 HEAD WILL BE SAVED ON UNIT 1017 AT END OF TIME STEP    6, STRESS PERIOD   41
 UBDSV1 SAVING           STO-SS ON UNIT   1016 AT TIME STEP      7, STRESS PERIOD     41
 UBDSV1 SAVING           STO-SY ON UNIT   1016 AT TIME STEP      7, STRESS PERIOD     41
 UBDSV1 SAVING     FLOW-JA-FACE ON UNIT   1016 AT TIME STEP      7, STRESS PERIOD     41
 UBDSV06 SAVING              RCH IN MODEL TEST_TRANS       PACKAGE TEST_TRANS      CONNECTED TO MODEL TEST_TRANS       PACKAGE RCHA             ON UNIT   1016 AT TIME STEP      7, STRESS PERIOD     41
 UBDSV06 SAVING              CHD IN MODEL TEST_TRANS       PACKAGE TEST_TRANS      CONNECTED TO MODEL TEST_TRANS       PACKAGE CHD              ON UNIT   1016 AT TIME STEP      7, STRESS PERIOD     41

 HEAD WILL BE SAVED ON UNIT 1017 AT END OF TIME STEP    7, STRESS PERIOD   41
 UBDSV1 SAVING           STO-SS ON UNIT   1016 AT TIME STEP      8, STRESS PERIOD     41
 UBDSV1 SAVING           STO-SY ON UNIT   1016 AT TIME STEP      8, STRESS PERIOD     41
 UBDSV1 SAVING     FLOW-JA-FACE ON UNIT   1016 AT TIME STEP      8, STRESS PERIOD     41
 UBDSV06 SAVING              RCH IN MODEL TEST_TRANS       PACKAGE TEST_TRANS      CONNECTED TO MODEL TEST_TRANS       PACKAGE RCHA             ON UNIT   1016 AT TIME STEP      8, STRESS PERIOD     41
 UBDSV06 SAVING              CHD IN MODEL TEST_TRANS       PACKAGE TEST_TRANS      CONNECTED TO MODEL TEST_TRANS       PACKAGE CHD              ON UNIT   1016 AT TIME STEP      8, STRESS PERIOD     41

 HEAD WILL BE SAVED ON UNIT 1017 AT END OF TIME STEP    8, STRESS PERIOD   41
 UBDSV1 SAVING           STO-SS ON UNIT   1016 AT TIME STEP      9, STRESS PERIOD     41
 UBDSV1 SAVING           STO-SY ON UNIT   1016 AT TIME STEP      9, STRESS PERIOD     41
 UBDSV1 SAVING     FLOW-JA-FACE ON UNIT   1016 AT TIME STEP      9, STRESS PERIOD     41
 UBDSV06 SAVING              RCH IN MODEL TEST_TRANS       PACKAGE TEST_TRANS      CONNECTED TO MODEL TEST_TRANS       PACKAGE RCHA             ON UNIT   1016 AT TIME STEP      9, STRESS PERIOD     41
 UBDSV06 SAVING              CHD IN MODEL TEST_TRANS       PACKAGE TEST_TRANS      CONNECTED TO MODEL TEST_TRANS       PACKAGE CHD              ON UNIT   1016 AT TIME STEP      9, STRESS PERIOD     41

 HEAD WILL BE SAVED ON UNIT 1017 AT END OF TIME STEP    9, STRESS PERIOD   41
 UBDSV1 SAVING           STO-SS ON UNIT   1016 AT TIME STEP     10, STRESS PERIOD     41
 UBDSV1 SAVING           STO-SY ON UNIT   1016 AT TIME STEP     10, STRESS PERIOD     41
 UBDSV1 SAVING     FLOW-JA-FACE ON UNIT   1016 AT TIME STEP     10, STRESS PERIOD     41
 UBDSV06 SAVING              RCH IN MODEL TEST_TRANS       PACKAGE TEST_TRANS      CONNECTED TO MODEL TEST_TRANS       PACKAGE RCHA             ON UNIT   1016 AT TIME STEP     10, STRESS PERIOD     41
 UBDSV06 SAVING              CHD IN MODEL TEST_TRANS       PACKAGE TEST_TRANS      CONNECTED TO MODEL TEST_TRANS       PACKAGE CHD              ON UNIT   1016 AT TIME STEP     10, STRESS PERIOD     41
1
  HEAD IN LAYER   1 AT END OF TIME STEP  10 IN STRESS PERIOD   41
  ---------------------------------------------------------------------------

            1           2           3           4           5           6           7           8           9          10
           11          12          13          14          15          16          17          18          19          20
           21          22          23          24          25          26          27          28          29          30
 ........................................................................................................................
   1    27.90       27.89       27.88       27.87       27.85       27.82       27.79       27.76       27.72       27.68    
        27.63       27.57       27.51       27.44       27.37       27.29       27.20       27.11       27.01       26.90    
        26.78       26.65       26.52       26.37       26.21       26.04       25.84       25.63       25.40       25.13    
   2    27.90       27.89       27.88       27.87       27.85       27.82       27.79       27.76       27.72       27.68    
        27.63       27.57       27.51       27.44       27.37       27.29       27.20       27.11       27.01       26.90    
        26.78       26.65       26.52       26.37       26.21       26.04       25.84       25.63       25.40       25.13    
   3    27.90       27.89       27.88       27.87       27.85       27.82       27.79       27.76       27.72       27.68    
        27.63       27.57       27.51       27.44       27.37       27.29       27.20       27.11       27.01       26.90    
        26.78       26.65       26.52       26.37       26.21       26.04       25.84       25.63       25.40       25.13    
   4    27.90       27.89       27.88       27.87       27.85       27.82       27.79       27.76       27.72       27.68    
        27.63       27.57       27.51       27.44       27.37       27.29       27.20       27.11       27.01       26.90    
        26.78       26.65       26.52       26.37       26.21       26.04       25.84       25.63       25.40       25.13    
   5    27.90       27.89       27.88       27.87       27.85       27.82       27.79       27.76       27.72       27.68    
        27.63       27.57       27.51       27.44       27.37       27.29       27.20       27.11       27.01       26.90    
        26.78       26.65       26.52       26.37       26.21       26.04       25.84       25.63       25.40       25.13    
   6    27.90       27.89       27.88       27.87       27.85       27.82       27.79       27.76       27.72       27.68    
        27.63       27.57       27.51       27.44       27.37       27.29       27.20       27.11       27.01       26.90    
        26.78       26.65       26.52       26.37       26.21       26.04       25.84       25.63       25.40       25.13    
   7    27.90       27.89       27.88       27.87       27.85       27.82       27.79       27.76       27.72       27.68    
        27.63       27.57       27.51       27.44       27.37       27.29       27.20       27.11       27.01       26.90    
        26.78       26.65       26.52       26.37       26.21       26.04       25.84       25.63       25.40       25.13    
   8    27.90       27.89       27.88       27.87       27.85       27.82       27.79       27.76       27.72       27.68    
        27.63       27.57       27.51       27.44       27.37       27.29       27.20       27.11       27.01       26.90    
        26.78       26.65       26.52       26.37       26.21       26.04       25.84       25.63       25.40       25.13    
   9    27.90       27.89       27.88       27.87       27.85       27.82       27.79       27.76       27.72       27.68    
        27.63       27.57       27.51       27.44       27.37       27.29       27.20       27.11       27.01       26.90    
        26.78       26.65       26.52       26.37       26.21       26.04       25.84       25.63       25.40       25.13    
  10    27.90       27.89       27.88       27.87       27.85       27.82       27.79       27.76       27.72       27.68    
        27.63       27.57       27.51       27.44       27.37       27.29       27.20       27.11       27.01       26.90    
        26.78       26.65       26.52       26.37       26.21       26.04       25.84       25.63       25.40       25.13    
  11    27.90       27.89       27.88       27.87       27.85       27.82       27.79       27.76       27.72       27.68    
        27.63       27.57       27.51       27.44       27.37       27.29       27.20       27.11       27.01       26.90    
        26.78       26.65       26.52       26.37       26.21       26.04       25.84       25.63       25.40       25.13    
  12    27.90       27.89       27.88       27.87       27.85       27.82       27.79       27.76       27.72       27.68    
        27.63       27.57       27.51       27.44       27.37       27.29       27.20       27.11       27.01       26.90    
        26.78       26.65       26.52       26.37       26.21       26.04       25.84       25.63       25.40       25.13    
  13    27.90       27.89       27.88       27.87       27.85       27.82       27.79       27.76       27.72       27.68    
        27.63       27.57       27.51       27.44       27.37       27.29       27.20       27.11       27.01       26.90    
        26.78       26.65       26.52       26.37       26.21       26.04       25.84       25.63       25.40       25.13    
  14    27.90       27.89       27.88       27.87       27.85       27.82       27.79       27.76       27.72       27.68    
        27.63       27.57       27.51       27.44       27.37       27.29       27.20       27.11       27.01       26.90    
        26.78       26.65       26.52       26.37       26.21       26.04       25.84       25.63       25.40       25.13    
  15    27.90       27.89       27.88       27.87       27.85       27.82       27.79       27.76       27.72       27.68    
        27.63       27.57       27.51       27.44       27.37       27.29       27.20       27.11       27.01       26.90    
        26.78       26.65       26.52       26.37       26.21       26.04       25.84       25.63       25.40       25.13    
  16    27.90       27.89       27.88       27.87       27.85       27.82       27.79       27.76       27.72       27.68    
        27.63       27.57       27.51       27.44       27.37       27.29       27.20       27.11       27.01       26.90    
        26.78       26.65       26.52       26.37       26.21       26.04       25.84       25.63       25.40       25.13    
  17    27.90       27.89       27.88       27.87       27.85       27.82       27.79       27.76       27.72       27.68    
        27.63       27.57       27.51       27.44       27.37       27.29       27.20       27.11       27.01       26.90    
        26.78       26.65       26.52       26.37       26.21       26.04       25.84       25.63       25.40       25.13    
  18    27.90       27.89       27.88       27.87       27.85       27.82       27.79       27.76       27.72       27.68    
        27.63       27.57       27.51       27.44       27.37       27.29       27.20       27.11       27.01       26.90    
        26.78       26.65       26.52       26.37       26.21       26.04       25.84       25.63       25.40       25.13    
  19    27.90       27.89       27.88       27.87       27.85       27.82       27.79       27.76       27.72       27.68    
        27.63       27.57       27.51       27.44       27.37       27.29       27.20       27.11       27.01       26.90    
        26.78       26.65       26.52       26.37       26.21       26.04       25.84       25.63       25.40       25.13    
  20    27.90       27.89       27.88       27.87       27.85       27.82       27.79       27.76       27.72       27.68    
        27.63       27.57       27.51       27.44       27.37       27.29       27.20       27.11       27.01       26.90    
        26.78       26.65       26.52       26.37       26.21       26.04       25.84       25.63       25.40       25.13    
  21    27.90       27.89       27.88       27.87       27.85       27.82       27.79       27.76       27.72       27.68    
        27.63       27.57       27.51       27.44       27.37       27.29       27.20       27.11       27.01       26.90    
        26.78       26.65       26.52       26.37       26.21       26.04       25.84       25.63       25.40       25.13    
  22    27.90       27.89       27.88       27.87       27.85       27.82       27.79       27.76       27.72       27.68    
        27.63       27.57       27.51       27.44       27.37       27.29       27.20       27.11       27.01       26.90    
        26.78       26.65       26.52       26.37       26.21       26.04       25.84       25.63       25.40       25.13    
  23    27.90       27.89       27.88       27.87       27.85       27.82       27.79       27.76       27.72       27.68    
        27.63       27.57       27.51       27.44       27.37       27.29       27.20       27.11       27.01       26.90    
        26.78       26.65       26.52       26.37       26.21       26.04       25.84       25.63       25.40       25.13    
  24    27.90       27.89       27.88       27.87       27.85       27.82       27.79       27.76       27.72       27.68    
        27.63       27.57       27.51       27.44       27.37       27.29       27.20       27.11       27.01       26.90    
        26.78       26.65       26.52       26.37       26.21       26.04       25.84       25.63       25.40       25.13    
  25    27.90       27.89       27.88       27.87       27.85       27.82       27.79       27.76       27.72       27.68    
        27.63       27.57       27.51       27.44       27.37       27.29       27.20       27.11       27.01       26.90    
        26.78       26.65       26.52       26.37       26.21       26.04       25.84       25.63       25.40       25.13    
  26    27.90       27.89       27.88       27.87       27.85       27.82       27.79       27.76       27.72       27.68    
        27.63       27.57       27.51       27.44       27.37       27.29       27.20       27.11       27.01       26.90    
        26.78       26.65       26.52       26.37       26.21       26.04       25.84       25.63       25.40       25.13    
  27    27.90       27.89       27.88       27.87       27.85       27.82       27.79       27.76       27.72       27.68    
        27.63       27.57       27.51       27.44       27.37       27.29       27.20       27.11       27.01       26.90    
        26.78       26.65       26.52       26.37       26.21       26.04       25.84       25.63       25.40       25.13    
  28    27.90       27.89       27.88       27.87       27.85       27.82       27.79       27.76       27.72       27.68    
        27.63       27.57       27.51       27.44       27.37       27.29       27.20       27.11       27.01       26.90    
        26.78       26.65       26.52       26.37       26.21       26.04       25.84       25.63       25.40       25.13    
  29    27.90       27.89       27.88       27.87       27.85       27.82       27.79       27.76       27.72       27.68    
        27.63       27.57       27.51       27.44       27.37       27.29       27.20       27.11       27.01       26.90    
        26.78       26.65       26.52       26.37       26.21       26.04       25.84       25.63       25.40       25.13    
  30    27.90       27.89       27.88       27.87       27.85       27.82       27.79       27.76       27.72       27.68    
        27.63       27.57       27.51       27.44       27.37       27.29       27.20       27.11       27.01       26.90    
        26.78       26.65       26.52       26.37       26.21       26.04       25.84       25.63       25.40       25.13    

 HEAD WILL BE SAVED ON UNIT 1017 AT END OF TIME STEP   10, STRESS PERIOD   41


  VOLUME BUDGET FOR ENTIRE MODEL AT END OF TIME STEP   10, STRESS PERIOD  41
  ---------------------------------------------------------------------------------------------------

     CUMULATIVE VOLUME      L**3       RATES FOR THIS TIME STEP      L**3/T          PACKAGE NAME    
     ------------------                 ------------------------                     ----------------

           IN:                                      IN:
           ---                                      ---
              STO-SS =          64.4477                STO-SS =       8.0121E-02     STORAGE         
              STO-SY =       41593.0668                STO-SY =          50.3482     STORAGE         
                 RCH =      201887.7631                   RCH =         107.2606     RCHA            
                 CHD =        3520.9028                   CHD =           0.0000     CHD             

            TOTAL IN =      247066.1804              TOTAL IN =         157.6888

          OUT:                                     OUT:
          ----                                     ----
              STO-SS =          55.8909                STO-SS =           0.0000     STORAGE         
              STO-SY =       36420.5627                STO-SY =           0.0000     STORAGE         
                 RCH =           0.0000                   RCH =           0.0000     RCHA            
                 CHD =      210589.1080                   CHD =         157.6859     CHD             

           TOTAL OUT =      247065.5616             TOTAL OUT =         157.6859

            IN - OUT =           0.6188              IN - OUT =       2.9325E-03

 PERCENT DISCREPANCY =           0.00     PERCENT DISCREPANCY =           0.00




         TIME SUMMARY AT END OF TIME STEP   10 IN STRESS PERIOD   41
                    SECONDS     MINUTES      HOURS       DAYS        YEARS
                    -----------------------------------------------------------
   TIME STEP LENGTH 2.59200E+05  4320.0      72.000      3.0000     8.21355E-03
 STRESS PERIOD TIME 2.59200E+06  43200.      720.00      30.000     8.21355E-02
         TOTAL TIME 1.03766E+08 1.72944E+06  28824.      1201.0      3.2882    

 OUTPUT CONTROL FOR STRESS PERIOD 42 IS REPEATED USING SETTINGS FROM A PREVIOUS STRESS PERIOD.


 STRESS PERIOD 42 IS TRANSIENT


                 RECHARGE =  0.8219178E-03
 UBDSV1 SAVING           STO-SS ON UNIT   1016 AT TIME STEP      1, STRESS PERIOD     42
 UBDSV1 SAVING           STO-SY ON UNIT   1016 AT TIME STEP      1, STRESS PERIOD     42
 UBDSV1 SAVING     FLOW-JA-FACE ON UNIT   1016 AT TIME STEP      1, STRESS PERIOD     42
 UBDSV06 SAVING              RCH IN MODEL TEST_TRANS       PACKAGE TEST_TRANS      CONNECTED TO MODEL TEST_TRANS       PACKAGE RCHA             ON UNIT   1016 AT TIME STEP      1, STRESS PERIOD     42
 UBDSV06 SAVING              CHD IN MODEL TEST_TRANS       PACKAGE TEST_TRANS      CONNECTED TO MODEL TEST_TRANS       PACKAGE CHD              ON UNIT   1016 AT TIME STEP      1, STRESS PERIOD     42
1
  HEAD IN LAYER   1 AT END OF TIME STEP   1 IN STRESS PERIOD   42
  ---------------------------------------------------------------------------

            1           2           3           4           5           6           7           8           9          10
           11          12          13          14          15          16          17          18          19          20
           21          22          23          24          25          26          27          28          29          30
 ........................................................................................................................
   1    27.88       27.87       27.86       27.85       27.83       27.81       27.78       27.74       27.70       27.66    
        27.61       27.55       27.49       27.42       27.35       27.27       27.19       27.10       27.00       26.89    
        26.78       26.66       26.54       26.42       26.30       26.20       26.13       26.13       26.25       26.56    
   2    27.88       27.87       27.86       27.85       27.83       27.81       27.78       27.74       27.70       27.66    
        27.61       27.55       27.49       27.42       27.35       27.27       27.19       27.10       27.00       26.89    
        26.78       26.66       26.54       26.42       26.30       26.20       26.13       26.13       26.25       26.56    
   3    27.88       27.87       27.86       27.85       27.83       27.81       27.78       27.74       27.70       27.66    
        27.61       27.55       27.49       27.42       27.35       27.27       27.19       27.10       27.00       26.89    
        26.78       26.66       26.54       26.42       26.30       26.20       26.13       26.13       26.25       26.56    
   4    27.88       27.87       27.86       27.85       27.83       27.81       27.78       27.74       27.70       27.66    
        27.61       27.55       27.49       27.42       27.35       27.27       27.19       27.10       27.00       26.89    
        26.78       26.66       26.54       26.42       26.30       26.20       26.13       26.13       26.25       26.56    
   5    27.88       27.87       27.86       27.85       27.83       27.81       27.78       27.74       27.70       27.66    
        27.61       27.55       27.49       27.42       27.35       27.27       27.19       27.10       27.00       26.89    
        26.78       26.66       26.54       26.42       26.30       26.20       26.13       26.13       26.25       26.56    
   6    27.88       27.87       27.86       27.85       27.83       27.81       27.78       27.74       27.70       27.66    
        27.61       27.55       27.49       27.42       27.35       27.27       27.19       27.10       27.00       26.89    
        26.78       26.66       26.54       26.42       26.30       26.20       26.13       26.13       26.25       26.56    
   7    27.88       27.87       27.86       27.85       27.83       27.81       27.78       27.74       27.70       27.66    
        27.61       27.55       27.49       27.42       27.35       27.27       27.19       27.10       27.00       26.89    
        26.78       26.66       26.54       26.42       26.30       26.20       26.13       26.13       26.25       26.56    
   8    27.88       27.87       27.86       27.85       27.83       27.81       27.78       27.74       27.70       27.66    
        27.61       27.55       27.49       27.42       27.35       27.27       27.19       27.10       27.00       26.89    
        26.78       26.66       26.54       26.42       26.30       26.20       26.13       26.13       26.25       26.56    
   9    27.88       27.87       27.86       27.85       27.83       27.81       27.78       27.74       27.70       27.66    
        27.61       27.55       27.49       27.42       27.35       27.27       27.19       27.10       27.00       26.89    
        26.78       26.66       26.54       26.42       26.30       26.20       26.13       26.13       26.25       26.56    
  10    27.88       27.87       27.86       27.85       27.83       27.81       27.78       27.74       27.70       27.66    
        27.61       27.55       27.49       27.42       27.35       27.27       27.19       27.10       27.00       26.89    
        26.78       26.66       26.54       26.42       26.30       26.20       26.13       26.13       26.25       26.56    
  11    27.88       27.87       27.86       27.85       27.83       27.81       27.78       27.74       27.70       27.66    
        27.61       27.55       27.49       27.42       27.35       27.27       27.19       27.10       27.00       26.89    
        26.78       26.66       26.54       26.42       26.30       26.20       26.13       26.13       26.25       26.56    
  12    27.88       27.87       27.86       27.85       27.83       27.81       27.78       27.74       27.70       27.66    
        27.61       27.55       27.49       27.42       27.35       27.27       27.19       27.10       27.00       26.89    
        26.78       26.66       26.54       26.42       26.30       26.20       26.13       26.13       26.25       26.56    
  13    27.88       27.87       27.86       27.85       27.83       27.81       27.78       27.74       27.70       27.66    
        27.61       27.55       27.49       27.42       27.35       27.27       27.19       27.10       27.00       26.89    
        26.78       26.66       26.54       26.42       26.30       26.20       26.13       26.13       26.25       26.56    
  14    27.88       27.87       27.86       27.85       27.83       27.81       27.78       27.74       27.70       27.66    
        27.61       27.55       27.49       27.42       27.35       27.27       27.19       27.10       27.00       26.89    
        26.78       26.66       26.54       26.42       26.30       26.20       26.13       26.13       26.25       26.56    
  15    27.88       27.87       27.86       27.85       27.83       27.81       27.78       27.74       27.70       27.66    
        27.61       27.55       27.49       27.42       27.35       27.27       27.19       27.10       27.00       26.89    
        26.78       26.66       26.54       26.42       26.30       26.20       26.13       26.13       26.25       26.56    
  16    27.88       27.87       27.86       27.85       27.83       27.81       27.78       27.74       27.70       27.66    
        27.61       27.55       27.49       27.42       27.35       27.27       27.19       27.10       27.00       26.89    
        26.78       26.66       26.54       26.42       26.30       26.20       26.13       26.13       26.25       26.56    
  17    27.88       27.87       27.86       27.85       27.83       27.81       27.78       27.74       27.70       27.66    
        27.61       27.55       27.49       27.42       27.35       27.27       27.19       27.10       27.00       26.89    
        26.78       26.66       26.54       26.42       26.30       26.20       26.13       26.13       26.25       26.56    
  18    27.88       27.87       27.86       27.85       27.83       27.81       27.78       27.74       27.70       27.66    
        27.61       27.55       27.49       27.42       27.35       27.27       27.19       27.10       27.00       26.89    
        26.78       26.66       26.54       26.42       26.30       26.20       26.13       26.13       26.25       26.56    
  19    27.88       27.87       27.86       27.85       27.83       27.81       27.78       27.74       27.70       27.66    
        27.61       27.55       27.49       27.42       27.35       27.27       27.19       27.10       27.00       26.89    
        26.78       26.66       26.54       26.42       26.30       26.20       26.13       26.13       26.25       26.56    
  20    27.88       27.87       27.86       27.85       27.83       27.81       27.78       27.74       27.70       27.66    
        27.61       27.55       27.49       27.42       27.35       27.27       27.19       27.10       27.00       26.89    
        26.78       26.66       26.54       26.42       26.30       26.20       26.13       26.13       26.25       26.56    
  21    27.88       27.87       27.86       27.85       27.83       27.81       27.78       27.74       27.70       27.66    
        27.61       27.55       27.49       27.42       27.35       27.27       27.19       27.10       27.00       26.89    
        26.78       26.66       26.54       26.42       26.30       26.20       26.13       26.13       26.25       26.56    
  22    27.88       27.87       27.86       27.85       27.83       27.81       27.78       27.74       27.70       27.66    
        27.61       27.55       27.49       27.42       27.35       27.27       27.19       27.10       27.00       26.89    
        26.78       26.66       26.54       26.42       26.30       26.20       26.13       26.13       26.25       26.56    
  23    27.88       27.87       27.86       27.85       27.83       27.81       27.78       27.74       27.70       27.66    
        27.61       27.55       27.49       27.42       27.35       27.27       27.19       27.10       27.00       26.89    
        26.78       26.66       26.54       26.42       26.30       26.20       26.13       26.13       26.25       26.56    
  24    27.88       27.87       27.86       27.85       27.83       27.81       27.78       27.74       27.70       27.66    
        27.61       27.55       27.49       27.42       27.35       27.27       27.19       27.10       27.00       26.89    
        26.78       26.66       26.54       26.42       26.30       26.20       26.13       26.13       26.25       26.56    
  25    27.88       27.87       27.86       27.85       27.83       27.81       27.78       27.74       27.70       27.66    
        27.61       27.55       27.49       27.42       27.35       27.27       27.19       27.10       27.00       26.89    
        26.78       26.66       26.54       26.42       26.30       26.20       26.13       26.13       26.25       26.56    
  26    27.88       27.87       27.86       27.85       27.83       27.81       27.78       27.74       27.70       27.66    
        27.61       27.55       27.49       27.42       27.35       27.27       27.19       27.10       27.00       26.89    
        26.78       26.66       26.54       26.42       26.30       26.20       26.13       26.13       26.25       26.56    
  27    27.88       27.87       27.86       27.85       27.83       27.81       27.78       27.74       27.70       27.66    
        27.61       27.55       27.49       27.42       27.35       27.27       27.19       27.10       27.00       26.89    
        26.78       26.66       26.54       26.42       26.30       26.20       26.13       26.13       26.25       26.56    
  28    27.88       27.87       27.86       27.85       27.83       27.81       27.78       27.74       27.70       27.66    
        27.61       27.55       27.49       27.42       27.35       27.27       27.19       27.10       27.00       26.89    
        26.78       26.66       26.54       26.42       26.30       26.20       26.13       26.13       26.25       26.56    
  29    27.88       27.87       27.86       27.85       27.83       27.81       27.78       27.74       27.70       27.66    
        27.61       27.55       27.49       27.42       27.35       27.27       27.19       27.10       27.00       26.89    
        26.78       26.66       26.54       26.42       26.30       26.20       26.13       26.13       26.25       26.56    
  30    27.88       27.87       27.86       27.85       27.83       27.81       27.78       27.74       27.70       27.66    
        27.61       27.55       27.49       27.42       27.35       27.27       27.19       27.10       27.00       26.89    
        26.78       26.66       26.54       26.42       26.30       26.20       26.13       26.13       26.25       26.56    

 HEAD WILL BE SAVED ON UNIT 1017 AT END OF TIME STEP    1, STRESS PERIOD   42



         TIME SUMMARY AT END OF TIME STEP    1 IN STRESS PERIOD   42
                    SECONDS     MINUTES      HOURS       DAYS        YEARS
                    -----------------------------------------------------------
   TIME STEP LENGTH 2.59200E+05  4320.0      72.000      3.0000     8.21355E-03
 STRESS PERIOD TIME 2.59200E+05  4320.0      72.000      3.0000     8.21355E-03
         TOTAL TIME 1.04026E+08 1.73376E+06  28896.      1204.0      3.2964    
 UBDSV1 SAVING           STO-SS ON UNIT   1016 AT TIME STEP      2, STRESS PERIOD     42
 UBDSV1 SAVING           STO-SY ON UNIT   1016 AT TIME STEP      2, STRESS PERIOD     42
 UBDSV1 SAVING     FLOW-JA-FACE ON UNIT   1016 AT TIME STEP      2, STRESS PERIOD     42
 UBDSV06 SAVING              RCH IN MODEL TEST_TRANS       PACKAGE TEST_TRANS      CONNECTED TO MODEL TEST_TRANS       PACKAGE RCHA             ON UNIT   1016 AT TIME STEP      2, STRESS PERIOD     42
 UBDSV06 SAVING              CHD IN MODEL TEST_TRANS       PACKAGE TEST_TRANS      CONNECTED TO MODEL TEST_TRANS       PACKAGE CHD              ON UNIT   1016 AT TIME STEP      2, STRESS PERIOD     42

 HEAD WILL BE SAVED ON UNIT 1017 AT END OF TIME STEP    2, STRESS PERIOD   42
 UBDSV1 SAVING           STO-SS ON UNIT   1016 AT TIME STEP      3, STRESS PERIOD     42
 UBDSV1 SAVING           STO-SY ON UNIT   1016 AT TIME STEP      3, STRESS PERIOD     42
 UBDSV1 SAVING     FLOW-JA-FACE ON UNIT   1016 AT TIME STEP      3, STRESS PERIOD     42
 UBDSV06 SAVING              RCH IN MODEL TEST_TRANS       PACKAGE TEST_TRANS      CONNECTED TO MODEL TEST_TRANS       PACKAGE RCHA             ON UNIT   1016 AT TIME STEP      3, STRESS PERIOD     42
 UBDSV06 SAVING              CHD IN MODEL TEST_TRANS       PACKAGE TEST_TRANS      CONNECTED TO MODEL TEST_TRANS       PACKAGE CHD              ON UNIT   1016 AT TIME STEP      3, STRESS PERIOD     42

 HEAD WILL BE SAVED ON UNIT 1017 AT END OF TIME STEP    3, STRESS PERIOD   42
 UBDSV1 SAVING           STO-SS ON UNIT   1016 AT TIME STEP      4, STRESS PERIOD     42
 UBDSV1 SAVING           STO-SY ON UNIT   1016 AT TIME STEP      4, STRESS PERIOD     42
 UBDSV1 SAVING     FLOW-JA-FACE ON UNIT   1016 AT TIME STEP      4, STRESS PERIOD     42
 UBDSV06 SAVING              RCH IN MODEL TEST_TRANS       PACKAGE TEST_TRANS      CONNECTED TO MODEL TEST_TRANS       PACKAGE RCHA             ON UNIT   1016 AT TIME STEP      4, STRESS PERIOD     42
 UBDSV06 SAVING              CHD IN MODEL TEST_TRANS       PACKAGE TEST_TRANS      CONNECTED TO MODEL TEST_TRANS       PACKAGE CHD              ON UNIT   1016 AT TIME STEP      4, STRESS PERIOD     42

 HEAD WILL BE SAVED ON UNIT 1017 AT END OF TIME STEP    4, STRESS PERIOD   42
 UBDSV1 SAVING           STO-SS ON UNIT   1016 AT TIME STEP      5, STRESS PERIOD     42
 UBDSV1 SAVING           STO-SY ON UNIT   1016 AT TIME STEP      5, STRESS PERIOD     42
 UBDSV1 SAVING     FLOW-JA-FACE ON UNIT   1016 AT TIME STEP      5, STRESS PERIOD     42
 UBDSV06 SAVING              RCH IN MODEL TEST_TRANS       PACKAGE TEST_TRANS      CONNECTED TO MODEL TEST_TRANS       PACKAGE RCHA             ON UNIT   1016 AT TIME STEP      5, STRESS PERIOD     42
 UBDSV06 SAVING              CHD IN MODEL TEST_TRANS       PACKAGE TEST_TRANS      CONNECTED TO MODEL TEST_TRANS       PACKAGE CHD              ON UNIT   1016 AT TIME STEP      5, STRESS PERIOD     42

 HEAD WILL BE SAVED ON UNIT 1017 AT END OF TIME STEP    5, STRESS PERIOD   42
 UBDSV1 SAVING           STO-SS ON UNIT   1016 AT TIME STEP      6, STRESS PERIOD     42
 UBDSV1 SAVING           STO-SY ON UNIT   1016 AT TIME STEP      6, STRESS PERIOD     42
 UBDSV1 SAVING     FLOW-JA-FACE ON UNIT   1016 AT TIME STEP      6, STRESS PERIOD     42
 UBDSV06 SAVING              RCH IN MODEL TEST_TRANS       PACKAGE TEST_TRANS      CONNECTED TO MODEL TEST_TRANS       PACKAGE RCHA             ON UNIT   1016 AT TIME STEP      6, STRESS PERIOD     42
 UBDSV06 SAVING              CHD IN MODEL TEST_TRANS       PACKAGE TEST_TRANS      CONNECTED TO MODEL TEST_TRANS       PACKAGE CHD              ON UNIT   1016 AT TIME STEP      6, STRESS PERIOD     42

 HEAD WILL BE SAVED ON UNIT 1017 AT END OF TIME STEP    6, STRESS PERIOD   42
 UBDSV1 SAVING           STO-SS ON UNIT   1016 AT TIME STEP      7, STRESS PERIOD     42
 UBDSV1 SAVING           STO-SY ON UNIT   1016 AT TIME STEP      7, STRESS PERIOD     42
 UBDSV1 SAVING     FLOW-JA-FACE ON UNIT   1016 AT TIME STEP      7, STRESS PERIOD     42
 UBDSV06 SAVING              RCH IN MODEL TEST_TRANS       PACKAGE TEST_TRANS      CONNECTED TO MODEL TEST_TRANS       PACKAGE RCHA             ON UNIT   1016 AT TIME STEP      7, STRESS PERIOD     42
 UBDSV06 SAVING              CHD IN MODEL TEST_TRANS       PACKAGE TEST_TRANS      CONNECTED TO MODEL TEST_TRANS       PACKAGE CHD              ON UNIT   1016 AT TIME STEP      7, STRESS PERIOD     42

 HEAD WILL BE SAVED ON UNIT 1017 AT END OF TIME STEP    7, STRESS PERIOD   42
 UBDSV1 SAVING           STO-SS ON UNIT   1016 AT TIME STEP      8, STRESS PERIOD     42
 UBDSV1 SAVING           STO-SY ON UNIT   1016 AT TIME STEP      8, STRESS PERIOD     42
 UBDSV1 SAVING     FLOW-JA-FACE ON UNIT   1016 AT TIME STEP      8, STRESS PERIOD     42
 UBDSV06 SAVING              RCH IN MODEL TEST_TRANS       PACKAGE TEST_TRANS      CONNECTED TO MODEL TEST_TRANS       PACKAGE RCHA             ON UNIT   1016 AT TIME STEP      8, STRESS PERIOD     42
 UBDSV06 SAVING              CHD IN MODEL TEST_TRANS       PACKAGE TEST_TRANS      CONNECTED TO MODEL TEST_TRANS       PACKAGE CHD              ON UNIT   1016 AT TIME STEP      8, STRESS PERIOD     42

 HEAD WILL BE SAVED ON UNIT 1017 AT END OF TIME STEP    8, STRESS PERIOD   42
 UBDSV1 SAVING           STO-SS ON UNIT   1016 AT TIME STEP      9, STRESS PERIOD     42
 UBDSV1 SAVING           STO-SY ON UNIT   1016 AT TIME STEP      9, STRESS PERIOD     42
 UBDSV1 SAVING     FLOW-JA-FACE ON UNIT   1016 AT TIME STEP      9, STRESS PERIOD     42
 UBDSV06 SAVING              RCH IN MODEL TEST_TRANS       PACKAGE TEST_TRANS      CONNECTED TO MODEL TEST_TRANS       PACKAGE RCHA             ON UNIT   1016 AT TIME STEP      9, STRESS PERIOD     42
 UBDSV06 SAVING              CHD IN MODEL TEST_TRANS       PACKAGE TEST_TRANS      CONNECTED TO MODEL TEST_TRANS       PACKAGE CHD              ON UNIT   1016 AT TIME STEP      9, STRESS PERIOD     42

 HEAD WILL BE SAVED ON UNIT 1017 AT END OF TIME STEP    9, STRESS PERIOD   42
 UBDSV1 SAVING           STO-SS ON UNIT   1016 AT TIME STEP     10, STRESS PERIOD     42
 UBDSV1 SAVING           STO-SY ON UNIT   1016 AT TIME STEP     10, STRESS PERIOD     42
 UBDSV1 SAVING     FLOW-JA-FACE ON UNIT   1016 AT TIME STEP     10, STRESS PERIOD     42
 UBDSV06 SAVING              RCH IN MODEL TEST_TRANS       PACKAGE TEST_TRANS      CONNECTED TO MODEL TEST_TRANS       PACKAGE RCHA             ON UNIT   1016 AT TIME STEP     10, STRESS PERIOD     42
 UBDSV06 SAVING              CHD IN MODEL TEST_TRANS       PACKAGE TEST_TRANS      CONNECTED TO MODEL TEST_TRANS       PACKAGE CHD              ON UNIT   1016 AT TIME STEP     10, STRESS PERIOD     42
1
  HEAD IN LAYER   1 AT END OF TIME STEP  10 IN STRESS PERIOD   42
  ---------------------------------------------------------------------------

            1           2           3           4           5           6           7           8           9          10
           11          12          13          14          15          16          17          18          19          20
           21          22          23          24          25          26          27          28          29          30
 ........................................................................................................................
   1    27.74       27.73       27.73       27.71       27.70       27.68       27.65       27.63       27.60       27.56    
        27.52       27.48       27.44       27.39       27.34       27.29       27.24       27.19       27.13       27.08    
        27.03       26.97       26.92       26.87       26.82       26.77       26.72       26.67       26.61       26.56    
   2    27.74       27.73       27.73       27.71       27.70       27.68       27.65       27.63       27.60       27.56    
        27.52       27.48       27.44       27.39       27.34       27.29       27.24       27.19       27.13       27.08    
        27.03       26.97       26.92       26.87       26.82       26.77       26.72       26.67       26.61       26.56    
   3    27.74       27.73       27.73       27.71       27.70       27.68       27.65       27.63       27.60       27.56    
        27.52       27.48       27.44       27.39       27.34       27.29       27.24       27.19       27.13       27.08    
        27.03       26.97       26.92       26.87       26.82       26.77       26.72       26.67       26.61       26.56    
   4    27.74       27.73       27.73       27.71       27.70       27.68       27.65       27.63       27.60       27.56    
        27.52       27.48       27.44       27.39       27.34       27.29       27.24       27.19       27.13       27.08    
        27.03       26.97       26.92       26.87       26.82       26.77       26.72       26.67       26.61       26.56    
   5    27.74       27.73       27.73       27.71       27.70       27.68       27.65       27.63       27.60       27.56    
        27.52       27.48       27.44       27.39       27.34       27.29       27.24       27.19       27.13       27.08    
        27.03       26.97       26.92       26.87       26.82       26.77       26.72       26.67       26.61       26.56    
   6    27.74       27.73       27.73       27.71       27.70       27.68       27.65       27.63       27.60       27.56    
        27.52       27.48       27.44       27.39       27.34       27.29       27.24       27.19       27.13       27.08    
        27.03       26.97       26.92       26.87       26.82       26.77       26.72       26.67       26.61       26.56    
   7    27.74       27.73       27.73       27.71       27.70       27.68       27.65       27.63       27.60       27.56    
        27.52       27.48       27.44       27.39       27.34       27.29       27.24       27.19       27.13       27.08    
        27.03       26.97       26.92       26.87       26.82       26.77       26.72       26.67       26.61       26.56    
   8    27.74       27.73       27.73       27.71       27.70       27.68       27.65       27.63       27.60       27.56    
        27.52       27.48       27.44       27.39       27.34       27.29       27.24       27.19       27.13       27.08    
        27.03       26.97       26.92       26.87       26.82       26.77       26.72       26.67       26.61       26.56    
   9    27.74       27.73       27.73       27.71       27.70       27.68       27.65       27.63       27.60       27.56    
        27.52       27.48       27.44       27.39       27.34       27.29       27.24       27.19       27.13       27.08    
        27.03       26.97       26.92       26.87       26.82       26.77       26.72       26.67       26.61       26.56    
  10    27.74       27.73       27.73       27.71       27.70       27.68       27.65       27.63       27.60       27.56    
        27.52       27.48       27.44       27.39       27.34       27.29       27.24       27.19       27.13       27.08    
        27.03       26.97       26.92       26.87       26.82       26.77       26.72       26.67       26.61       26.56    
  11    27.74       27.73       27.73       27.71       27.70       27.68       27.65       27.63       27.60       27.56    
        27.52       27.48       27.44       27.39       27.34       27.29       27.24       27.19       27.13       27.08    
        27.03       26.97       26.92       26.87       26.82       26.77       26.72       26.67       26.61       26.56    
  12    27.74       27.73       27.73       27.71       27.70       27.68       27.65       27.63       27.60       27.56    
        27.52       27.48       27.44       27.39       27.34       27.29       27.24       27.19       27.13       27.08    
        27.03       26.97       26.92       26.87       26.82       26.77       26.72       26.67       26.61       26.56    
  13    27.74       27.73       27.73       27.71       27.70       27.68       27.65       27.63       27.60       27.56    
        27.52       27.48       27.44       27.39       27.34       27.29       27.24       27.19       27.13       27.08    
        27.03       26.97       26.92       26.87       26.82       26.77       26.72       26.67       26.61       26.56    
  14    27.74       27.73       27.73       27.71       27.70       27.68       27.65       27.63       27.60       27.56    
        27.52       27.48       27.44       27.39       27.34       27.29       27.24       27.19       27.13       27.08    
        27.03       26.97       26.92       26.87       26.82       26.77       26.72       26.67       26.61       26.56    
  15    27.74       27.73       27.73       27.71       27.70       27.68       27.65       27.63       27.60       27.56    
        27.52       27.48       27.44       27.39       27.34       27.29       27.24       27.19       27.13       27.08    
        27.03       26.97       26.92       26.87       26.82       26.77       26.72       26.67       26.61       26.56    
  16    27.74       27.73       27.73       27.71       27.70       27.68       27.65       27.63       27.60       27.56    
        27.52       27.48       27.44       27.39       27.34       27.29       27.24       27.19       27.13       27.08    
        27.03       26.97       26.92       26.87       26.82       26.77       26.72       26.67       26.61       26.56    
  17    27.74       27.73       27.73       27.71       27.70       27.68       27.65       27.63       27.60       27.56    
        27.52       27.48       27.44       27.39       27.34       27.29       27.24       27.19       27.13       27.08    
        27.03       26.97       26.92       26.87       26.82       26.77       26.72       26.67       26.61       26.56    
  18    27.74       27.73       27.73       27.71       27.70       27.68       27.65       27.63       27.60       27.56    
        27.52       27.48       27.44       27.39       27.34       27.29       27.24       27.19       27.13       27.08    
        27.03       26.97       26.92       26.87       26.82       26.77       26.72       26.67       26.61       26.56    
  19    27.74       27.73       27.73       27.71       27.70       27.68       27.65       27.63       27.60       27.56    
        27.52       27.48       27.44       27.39       27.34       27.29       27.24       27.19       27.13       27.08    
        27.03       26.97       26.92       26.87       26.82       26.77       26.72       26.67       26.61       26.56    
  20    27.74       27.73       27.73       27.71       27.70       27.68       27.65       27.63       27.60       27.56    
        27.52       27.48       27.44       27.39       27.34       27.29       27.24       27.19       27.13       27.08    
        27.03       26.97       26.92       26.87       26.82       26.77       26.72       26.67       26.61       26.56    
  21    27.74       27.73       27.73       27.71       27.70       27.68       27.65       27.63       27.60       27.56    
        27.52       27.48       27.44       27.39       27.34       27.29       27.24       27.19       27.13       27.08    
        27.03       26.97       26.92       26.87       26.82       26.77       26.72       26.67       26.61       26.56    
  22    27.74       27.73       27.73       27.71       27.70       27.68       27.65       27.63       27.60       27.56    
        27.52       27.48       27.44       27.39       27.34       27.29       27.24       27.19       27.13       27.08    
        27.03       26.97       26.92       26.87       26.82       26.77       26.72       26.67       26.61       26.56    
  23    27.74       27.73       27.73       27.71       27.70       27.68       27.65       27.63       27.60       27.56    
        27.52       27.48       27.44       27.39       27.34       27.29       27.24       27.19       27.13       27.08    
        27.03       26.97       26.92       26.87       26.82       26.77       26.72       26.67       26.61       26.56    
  24    27.74       27.73       27.73       27.71       27.70       27.68       27.65       27.63       27.60       27.56    
        27.52       27.48       27.44       27.39       27.34       27.29       27.24       27.19       27.13       27.08    
        27.03       26.97       26.92       26.87       26.82       26.77       26.72       26.67       26.61       26.56    
  25    27.74       27.73       27.73       27.71       27.70       27.68       27.65       27.63       27.60       27.56    
        27.52       27.48       27.44       27.39       27.34       27.29       27.24       27.19       27.13       27.08    
        27.03       26.97       26.92       26.87       26.82       26.77       26.72       26.67       26.61       26.56    
  26    27.74       27.73       27.73       27.71       27.70       27.68       27.65       27.63       27.60       27.56    
        27.52       27.48       27.44       27.39       27.34       27.29       27.24       27.19       27.13       27.08    
        27.03       26.97       26.92       26.87       26.82       26.77       26.72       26.67       26.61       26.56    
  27    27.74       27.73       27.73       27.71       27.70       27.68       27.65       27.63       27.60       27.56    
        27.52       27.48       27.44       27.39       27.34       27.29       27.24       27.19       27.13       27.08    
        27.03       26.97       26.92       26.87       26.82       26.77       26.72       26.67       26.61       26.56    
  28    27.74       27.73       27.73       27.71       27.70       27.68       27.65       27.63       27.60       27.56    
        27.52       27.48       27.44       27.39       27.34       27.29       27.24       27.19       27.13       27.08    
        27.03       26.97       26.92       26.87       26.82       26.77       26.72       26.67       26.61       26.56    
  29    27.74       27.73       27.73       27.71       27.70       27.68       27.65       27.63       27.60       27.56    
        27.52       27.48       27.44       27.39       27.34       27.29       27.24       27.19       27.13       27.08    
        27.03       26.97       26.92       26.87       26.82       26.77       26.72       26.67       26.61       26.56    
  30    27.74       27.73       27.73       27.71       27.70       27.68       27.65       27.63       27.60       27.56    
        27.52       27.48       27.44       27.39       27.34       27.29       27.24       27.19       27.13       27.08    
        27.03       26.97       26.92       26.87       26.82       26.77       26.72       26.67       26.61       26.56    

 HEAD WILL BE SAVED ON UNIT 1017 AT END OF TIME STEP   10, STRESS PERIOD   42


  VOLUME BUDGET FOR ENTIRE MODEL AT END OF TIME STEP   10, STRESS PERIOD  42
  ---------------------------------------------------------------------------------------------------

     CUMULATIVE VOLUME      L**3       RATES FOR THIS TIME STEP      L**3/T          PACKAGE NAME    
     ------------------                 ------------------------                     ----------------

           IN:                                      IN:
           ---                                      ---
              STO-SS =          66.2594                STO-SS =       3.4012E-02     STORAGE         
              STO-SY =       42712.9334                STO-SY =          21.0177     STORAGE         
                 RCH =      204032.9686                   RCH =          71.5068     RCHA            
                 CHD =        4772.3889                   CHD =           0.0000     CHD             

            TOTAL IN =      251584.5503              TOTAL IN =          92.5585

          OUT:                                     OUT:
          ----                                     ----
              STO-SS =          61.6884                STO-SS =       6.3898E-02     STORAGE         
              STO-SY =       40307.3661                STO-SY =          41.3308     STORAGE         
                 RCH =           0.0000                   RCH =           0.0000     RCHA            
                 CHD =      211214.9225                   CHD =          51.1674     CHD             

           TOTAL OUT =      251583.9770             TOTAL OUT =          92.5621

            IN - OUT =           0.5733              IN - OUT =      -3.5417E-03

 PERCENT DISCREPANCY =           0.00     PERCENT DISCREPANCY =          -0.00




         TIME SUMMARY AT END OF TIME STEP   10 IN STRESS PERIOD   42
                    SECONDS     MINUTES      HOURS       DAYS        YEARS
                    -----------------------------------------------------------
   TIME STEP LENGTH 2.59200E+05  4320.0      72.000      3.0000     8.21355E-03
 STRESS PERIOD TIME 2.59200E+06  43200.      720.00      30.000     8.21355E-02
         TOTAL TIME 1.06358E+08 1.77264E+06  29544.      1231.0      3.3703    

 OUTPUT CONTROL FOR STRESS PERIOD 43 IS REPEATED USING SETTINGS FROM A PREVIOUS STRESS PERIOD.


 STRESS PERIOD 43 IS TRANSIENT


                 RECHARGE =  0.5479452E-03
 UBDSV1 SAVING           STO-SS ON UNIT   1016 AT TIME STEP      1, STRESS PERIOD     43
 UBDSV1 SAVING           STO-SY ON UNIT   1016 AT TIME STEP      1, STRESS PERIOD     43
 UBDSV1 SAVING     FLOW-JA-FACE ON UNIT   1016 AT TIME STEP      1, STRESS PERIOD     43
 UBDSV06 SAVING              RCH IN MODEL TEST_TRANS       PACKAGE TEST_TRANS      CONNECTED TO MODEL TEST_TRANS       PACKAGE RCHA             ON UNIT   1016 AT TIME STEP      1, STRESS PERIOD     43
 UBDSV06 SAVING              CHD IN MODEL TEST_TRANS       PACKAGE TEST_TRANS      CONNECTED TO MODEL TEST_TRANS       PACKAGE CHD              ON UNIT   1016 AT TIME STEP      1, STRESS PERIOD     43
1
  HEAD IN LAYER   1 AT END OF TIME STEP   1 IN STRESS PERIOD   43
  ---------------------------------------------------------------------------

            1           2           3           4           5           6           7           8           9          10
           11          12          13          14          15          16          17          18          19          20
           21          22          23          24          25          26          27          28          29          30
 ........................................................................................................................
   1    27.72       27.72       27.71       27.70       27.68       27.67       27.64       27.62       27.59       27.55    
        27.52       27.48       27.44       27.39       27.34       27.29       27.24       27.19       27.14       27.08    
        27.02       26.96       26.90       26.83       26.74       26.64       26.50       26.31       26.01       25.49    
   2    27.72       27.72       27.71       27.70       27.68       27.67       27.64       27.62       27.59       27.55    
        27.52       27.48       27.44       27.39       27.34       27.29       27.24       27.19       27.14       27.08    
        27.02       26.96       26.90       26.83       26.74       26.64       26.50       26.31       26.01       25.49    
   3    27.72       27.72       27.71       27.70       27.68       27.67       27.64       27.62       27.59       27.55    
        27.52       27.48       27.44       27.39       27.34       27.29       27.24       27.19       27.14       27.08    
        27.02       26.96       26.90       26.83       26.74       26.64       26.50       26.31       26.01       25.49    
   4    27.72       27.72       27.71       27.70       27.68       27.67       27.64       27.62       27.59       27.55    
        27.52       27.48       27.44       27.39       27.34       27.29       27.24       27.19       27.14       27.08    
        27.02       26.96       26.90       26.83       26.74       26.64       26.50       26.31       26.01       25.49    
   5    27.72       27.72       27.71       27.70       27.68       27.67       27.64       27.62       27.59       27.55    
        27.52       27.48       27.44       27.39       27.34       27.29       27.24       27.19       27.14       27.08    
        27.02       26.96       26.90       26.83       26.74       26.64       26.50       26.31       26.01       25.49    
   6    27.72       27.72       27.71       27.70       27.68       27.67       27.64       27.62       27.59       27.55    
        27.52       27.48       27.44       27.39       27.34       27.29       27.24       27.19       27.14       27.08    
        27.02       26.96       26.90       26.83       26.74       26.64       26.50       26.31       26.01       25.49    
   7    27.72       27.72       27.71       27.70       27.68       27.67       27.64       27.62       27.59       27.55    
        27.52       27.48       27.44       27.39       27.34       27.29       27.24       27.19       27.14       27.08    
        27.02       26.96       26.90       26.83       26.74       26.64       26.50       26.31       26.01       25.49    
   8    27.72       27.72       27.71       27.70       27.68       27.67       27.64       27.62       27.59       27.55    
        27.52       27.48       27.44       27.39       27.34       27.29       27.24       27.19       27.14       27.08    
        27.02       26.96       26.90       26.83       26.74       26.64       26.50       26.31       26.01       25.49    
   9    27.72       27.72       27.71       27.70       27.68       27.67       27.64       27.62       27.59       27.55    
        27.52       27.48       27.44       27.39       27.34       27.29       27.24       27.19       27.14       27.08    
        27.02       26.96       26.90       26.83       26.74       26.64       26.50       26.31       26.01       25.49    
  10    27.72       27.72       27.71       27.70       27.68       27.67       27.64       27.62       27.59       27.55    
        27.52       27.48       27.44       27.39       27.34       27.29       27.24       27.19       27.14       27.08    
        27.02       26.96       26.90       26.83       26.74       26.64       26.50       26.31       26.01       25.49    
  11    27.72       27.72       27.71       27.70       27.68       27.67       27.64       27.62       27.59       27.55    
        27.52       27.48       27.44       27.39       27.34       27.29       27.24       27.19       27.14       27.08    
        27.02       26.96       26.90       26.83       26.74       26.64       26.50       26.31       26.01       25.49    
  12    27.72       27.72       27.71       27.70       27.68       27.67       27.64       27.62       27.59       27.55    
        27.52       27.48       27.44       27.39       27.34       27.29       27.24       27.19       27.14       27.08    
        27.02       26.96       26.90       26.83       26.74       26.64       26.50       26.31       26.01       25.49    
  13    27.72       27.72       27.71       27.70       27.68       27.67       27.64       27.62       27.59       27.55    
        27.52       27.48       27.44       27.39       27.34       27.29       27.24       27.19       27.14       27.08    
        27.02       26.96       26.90       26.83       26.74       26.64       26.50       26.31       26.01       25.49    
  14    27.72       27.72       27.71       27.70       27.68       27.67       27.64       27.62       27.59       27.55    
        27.52       27.48       27.44       27.39       27.34       27.29       27.24       27.19       27.14       27.08    
        27.02       26.96       26.90       26.83       26.74       26.64       26.50       26.31       26.01       25.49    
  15    27.72       27.72       27.71       27.70       27.68       27.67       27.64       27.62       27.59       27.55    
        27.52       27.48       27.44       27.39       27.34       27.29       27.24       27.19       27.14       27.08    
        27.02       26.96       26.90       26.83       26.74       26.64       26.50       26.31       26.01       25.49    
  16    27.72       27.72       27.71       27.70       27.68       27.67       27.64       27.62       27.59       27.55    
        27.52       27.48       27.44       27.39       27.34       27.29       27.24       27.19       27.14       27.08    
        27.02       26.96       26.90       26.83       26.74       26.64       26.50       26.31       26.01       25.49    
  17    27.72       27.72       27.71       27.70       27.68       27.67       27.64       27.62       27.59       27.55    
        27.52       27.48       27.44       27.39       27.34       27.29       27.24       27.19       27.14       27.08    
        27.02       26.96       26.90       26.83       26.74       26.64       26.50       26.31       26.01       25.49    
  18    27.72       27.72       27.71       27.70       27.68       27.67       27.64       27.62       27.59       27.55    
        27.52       27.48       27.44       27.39       27.34       27.29       27.24       27.19       27.14       27.08    
        27.02       26.96       26.90       26.83       26.74       26.64       26.50       26.31       26.01       25.49    
  19    27.72       27.72       27.71       27.70       27.68       27.67       27.64       27.62       27.59       27.55    
        27.52       27.48       27.44       27.39       27.34       27.29       27.24       27.19       27.14       27.08    
        27.02       26.96       26.90       26.83       26.74       26.64       26.50       26.31       26.01       25.49    
  20    27.72       27.72       27.71       27.70       27.68       27.67       27.64       27.62       27.59       27.55    
        27.52       27.48       27.44       27.39       27.34       27.29       27.24       27.19       27.14       27.08    
        27.02       26.96       26.90       26.83       26.74       26.64       26.50       26.31       26.01       25.49    
  21    27.72       27.72       27.71       27.70       27.68       27.67       27.64       27.62       27.59       27.55    
        27.52       27.48       27.44       27.39       27.34       27.29       27.24       27.19       27.14       27.08    
        27.02       26.96       26.90       26.83       26.74       26.64       26.50       26.31       26.01       25.49    
  22    27.72       27.72       27.71       27.70       27.68       27.67       27.64       27.62       27.59       27.55    
        27.52       27.48       27.44       27.39       27.34       27.29       27.24       27.19       27.14       27.08    
        27.02       26.96       26.90       26.83       26.74       26.64       26.50       26.31       26.01       25.49    
  23    27.72       27.72       27.71       27.70       27.68       27.67       27.64       27.62       27.59       27.55    
        27.52       27.48       27.44       27.39       27.34       27.29       27.24       27.19       27.14       27.08    
        27.02       26.96       26.90       26.83       26.74       26.64       26.50       26.31       26.01       25.49    
  24    27.72       27.72       27.71       27.70       27.68       27.67       27.64       27.62       27.59       27.55    
        27.52       27.48       27.44       27.39       27.34       27.29       27.24       27.19       27.14       27.08    
        27.02       26.96       26.90       26.83       26.74       26.64       26.50       26.31       26.01       25.49    
  25    27.72       27.72       27.71       27.70       27.68       27.67       27.64       27.62       27.59       27.55    
        27.52       27.48       27.44       27.39       27.34       27.29       27.24       27.19       27.14       27.08    
        27.02       26.96       26.90       26.83       26.74       26.64       26.50       26.31       26.01       25.49    
  26    27.72       27.72       27.71       27.70       27.68       27.67       27.64       27.62       27.59       27.55    
        27.52       27.48       27.44       27.39       27.34       27.29       27.24       27.19       27.14       27.08    
        27.02       26.96       26.90       26.83       26.74       26.64       26.50       26.31       26.01       25.49    
  27    27.72       27.72       27.71       27.70       27.68       27.67       27.64       27.62       27.59       27.55    
        27.52       27.48       27.44       27.39       27.34       27.29       27.24       27.19       27.14       27.08    
        27.02       26.96       26.90       26.83       26.74       26.64       26.50       26.31       26.01       25.49    
  28    27.72       27.72       27.71       27.70       27.68       27.67       27.64       27.62       27.59       27.55    
        27.52       27.48       27.44       27.39       27.34       27.29       27.24       27.19       27.14       27.08    
        27.02       26.96       26.90       26.83       26.74       26.64       26.50       26.31       26.01       25.49    
  29    27.72       27.72       27.71       27.70       27.68       27.67       27.64       27.62       27.59       27.55    
        27.52       27.48       27.44       27.39       27.34       27.29       27.24       27.19       27.14       27.08    
        27.02       26.96       26.90       26.83       26.74       26.64       26.50       26.31       26.01       25.49    
  30    27.72       27.72       27.71       27.70       27.68       27.67       27.64       27.62       27.59       27.55    
        27.52       27.48       27.44       27.39       27.34       27.29       27.24       27.19       27.14       27.08    
        27.02       26.96       26.90       26.83       26.74       26.64       26.50       26.31       26.01       25.49    

 HEAD WILL BE SAVED ON UNIT 1017 AT END OF TIME STEP    1, STRESS PERIOD   43



         TIME SUMMARY AT END OF TIME STEP    1 IN STRESS PERIOD   43
                    SECONDS     MINUTES      HOURS       DAYS        YEARS
                    -----------------------------------------------------------
   TIME STEP LENGTH 2.59200E+05  4320.0      72.000      3.0000     8.21355E-03
 STRESS PERIOD TIME 2.59200E+05  4320.0      72.000      3.0000     8.21355E-03
         TOTAL TIME 1.06618E+08 1.77696E+06  29616.      1234.0      3.3785    
 UBDSV1 SAVING           STO-SS ON UNIT   1016 AT TIME STEP      2, STRESS PERIOD     43
 UBDSV1 SAVING           STO-SY ON UNIT   1016 AT TIME STEP      2, STRESS PERIOD     43
 UBDSV1 SAVING     FLOW-JA-FACE ON UNIT   1016 AT TIME STEP      2, STRESS PERIOD     43
 UBDSV06 SAVING              RCH IN MODEL TEST_TRANS       PACKAGE TEST_TRANS      CONNECTED TO MODEL TEST_TRANS       PACKAGE RCHA             ON UNIT   1016 AT TIME STEP      2, STRESS PERIOD     43
 UBDSV06 SAVING              CHD IN MODEL TEST_TRANS       PACKAGE TEST_TRANS      CONNECTED TO MODEL TEST_TRANS       PACKAGE CHD              ON UNIT   1016 AT TIME STEP      2, STRESS PERIOD     43

 HEAD WILL BE SAVED ON UNIT 1017 AT END OF TIME STEP    2, STRESS PERIOD   43
 UBDSV1 SAVING           STO-SS ON UNIT   1016 AT TIME STEP      3, STRESS PERIOD     43
 UBDSV1 SAVING           STO-SY ON UNIT   1016 AT TIME STEP      3, STRESS PERIOD     43
 UBDSV1 SAVING     FLOW-JA-FACE ON UNIT   1016 AT TIME STEP      3, STRESS PERIOD     43
 UBDSV06 SAVING              RCH IN MODEL TEST_TRANS       PACKAGE TEST_TRANS      CONNECTED TO MODEL TEST_TRANS       PACKAGE RCHA             ON UNIT   1016 AT TIME STEP      3, STRESS PERIOD     43
 UBDSV06 SAVING              CHD IN MODEL TEST_TRANS       PACKAGE TEST_TRANS      CONNECTED TO MODEL TEST_TRANS       PACKAGE CHD              ON UNIT   1016 AT TIME STEP      3, STRESS PERIOD     43

 HEAD WILL BE SAVED ON UNIT 1017 AT END OF TIME STEP    3, STRESS PERIOD   43
 UBDSV1 SAVING           STO-SS ON UNIT   1016 AT TIME STEP      4, STRESS PERIOD     43
 UBDSV1 SAVING           STO-SY ON UNIT   1016 AT TIME STEP      4, STRESS PERIOD     43
 UBDSV1 SAVING     FLOW-JA-FACE ON UNIT   1016 AT TIME STEP      4, STRESS PERIOD     43
 UBDSV06 SAVING              RCH IN MODEL TEST_TRANS       PACKAGE TEST_TRANS      CONNECTED TO MODEL TEST_TRANS       PACKAGE RCHA             ON UNIT   1016 AT TIME STEP      4, STRESS PERIOD     43
 UBDSV06 SAVING              CHD IN MODEL TEST_TRANS       PACKAGE TEST_TRANS      CONNECTED TO MODEL TEST_TRANS       PACKAGE CHD              ON UNIT   1016 AT TIME STEP      4, STRESS PERIOD     43

 HEAD WILL BE SAVED ON UNIT 1017 AT END OF TIME STEP    4, STRESS PERIOD   43
 UBDSV1 SAVING           STO-SS ON UNIT   1016 AT TIME STEP      5, STRESS PERIOD     43
 UBDSV1 SAVING           STO-SY ON UNIT   1016 AT TIME STEP      5, STRESS PERIOD     43
 UBDSV1 SAVING     FLOW-JA-FACE ON UNIT   1016 AT TIME STEP      5, STRESS PERIOD     43
 UBDSV06 SAVING              RCH IN MODEL TEST_TRANS       PACKAGE TEST_TRANS      CONNECTED TO MODEL TEST_TRANS       PACKAGE RCHA             ON UNIT   1016 AT TIME STEP      5, STRESS PERIOD     43
 UBDSV06 SAVING              CHD IN MODEL TEST_TRANS       PACKAGE TEST_TRANS      CONNECTED TO MODEL TEST_TRANS       PACKAGE CHD              ON UNIT   1016 AT TIME STEP      5, STRESS PERIOD     43

 HEAD WILL BE SAVED ON UNIT 1017 AT END OF TIME STEP    5, STRESS PERIOD   43
 UBDSV1 SAVING           STO-SS ON UNIT   1016 AT TIME STEP      6, STRESS PERIOD     43
 UBDSV1 SAVING           STO-SY ON UNIT   1016 AT TIME STEP      6, STRESS PERIOD     43
 UBDSV1 SAVING     FLOW-JA-FACE ON UNIT   1016 AT TIME STEP      6, STRESS PERIOD     43
 UBDSV06 SAVING              RCH IN MODEL TEST_TRANS       PACKAGE TEST_TRANS      CONNECTED TO MODEL TEST_TRANS       PACKAGE RCHA             ON UNIT   1016 AT TIME STEP      6, STRESS PERIOD     43
 UBDSV06 SAVING              CHD IN MODEL TEST_TRANS       PACKAGE TEST_TRANS      CONNECTED TO MODEL TEST_TRANS       PACKAGE CHD              ON UNIT   1016 AT TIME STEP      6, STRESS PERIOD     43

 HEAD WILL BE SAVED ON UNIT 1017 AT END OF TIME STEP    6, STRESS PERIOD   43
 UBDSV1 SAVING           STO-SS ON UNIT   1016 AT TIME STEP      7, STRESS PERIOD     43
 UBDSV1 SAVING           STO-SY ON UNIT   1016 AT TIME STEP      7, STRESS PERIOD     43
 UBDSV1 SAVING     FLOW-JA-FACE ON UNIT   1016 AT TIME STEP      7, STRESS PERIOD     43
 UBDSV06 SAVING              RCH IN MODEL TEST_TRANS       PACKAGE TEST_TRANS      CONNECTED TO MODEL TEST_TRANS       PACKAGE RCHA             ON UNIT   1016 AT TIME STEP      7, STRESS PERIOD     43
 UBDSV06 SAVING              CHD IN MODEL TEST_TRANS       PACKAGE TEST_TRANS      CONNECTED TO MODEL TEST_TRANS       PACKAGE CHD              ON UNIT   1016 AT TIME STEP      7, STRESS PERIOD     43

 HEAD WILL BE SAVED ON UNIT 1017 AT END OF TIME STEP    7, STRESS PERIOD   43
 UBDSV1 SAVING           STO-SS ON UNIT   1016 AT TIME STEP      8, STRESS PERIOD     43
 UBDSV1 SAVING           STO-SY ON UNIT   1016 AT TIME STEP      8, STRESS PERIOD     43
 UBDSV1 SAVING     FLOW-JA-FACE ON UNIT   1016 AT TIME STEP      8, STRESS PERIOD     43
 UBDSV06 SAVING              RCH IN MODEL TEST_TRANS       PACKAGE TEST_TRANS      CONNECTED TO MODEL TEST_TRANS       PACKAGE RCHA             ON UNIT   1016 AT TIME STEP      8, STRESS PERIOD     43
 UBDSV06 SAVING              CHD IN MODEL TEST_TRANS       PACKAGE TEST_TRANS      CONNECTED TO MODEL TEST_TRANS       PACKAGE CHD              ON UNIT   1016 AT TIME STEP      8, STRESS PERIOD     43

 HEAD WILL BE SAVED ON UNIT 1017 AT END OF TIME STEP    8, STRESS PERIOD   43
 UBDSV1 SAVING           STO-SS ON UNIT   1016 AT TIME STEP      9, STRESS PERIOD     43
 UBDSV1 SAVING           STO-SY ON UNIT   1016 AT TIME STEP      9, STRESS PERIOD     43
 UBDSV1 SAVING     FLOW-JA-FACE ON UNIT   1016 AT TIME STEP      9, STRESS PERIOD     43
 UBDSV06 SAVING              RCH IN MODEL TEST_TRANS       PACKAGE TEST_TRANS      CONNECTED TO MODEL TEST_TRANS       PACKAGE RCHA             ON UNIT   1016 AT TIME STEP      9, STRESS PERIOD     43
 UBDSV06 SAVING              CHD IN MODEL TEST_TRANS       PACKAGE TEST_TRANS      CONNECTED TO MODEL TEST_TRANS       PACKAGE CHD              ON UNIT   1016 AT TIME STEP      9, STRESS PERIOD     43

 HEAD WILL BE SAVED ON UNIT 1017 AT END OF TIME STEP    9, STRESS PERIOD   43
 UBDSV1 SAVING           STO-SS ON UNIT   1016 AT TIME STEP     10, STRESS PERIOD     43
 UBDSV1 SAVING           STO-SY ON UNIT   1016 AT TIME STEP     10, STRESS PERIOD     43
 UBDSV1 SAVING     FLOW-JA-FACE ON UNIT   1016 AT TIME STEP     10, STRESS PERIOD     43
 UBDSV06 SAVING              RCH IN MODEL TEST_TRANS       PACKAGE TEST_TRANS      CONNECTED TO MODEL TEST_TRANS       PACKAGE RCHA             ON UNIT   1016 AT TIME STEP     10, STRESS PERIOD     43
 UBDSV06 SAVING              CHD IN MODEL TEST_TRANS       PACKAGE TEST_TRANS      CONNECTED TO MODEL TEST_TRANS       PACKAGE CHD              ON UNIT   1016 AT TIME STEP     10, STRESS PERIOD     43
1
  HEAD IN LAYER   1 AT END OF TIME STEP  10 IN STRESS PERIOD   43
  ---------------------------------------------------------------------------

            1           2           3           4           5           6           7           8           9          10
           11          12          13          14          15          16          17          18          19          20
           21          22          23          24          25          26          27          28          29          30
 ........................................................................................................................
   1    27.61       27.61       27.60       27.59       27.58       27.56       27.54       27.52       27.49       27.46    
        27.42       27.38       27.34       27.29       27.24       27.18       27.12       27.05       26.97       26.89    
        26.80       26.70       26.59       26.47       26.34       26.20       26.05       25.88       25.70       25.49    
   2    27.61       27.61       27.60       27.59       27.58       27.56       27.54       27.52       27.49       27.46    
        27.42       27.38       27.34       27.29       27.24       27.18       27.12       27.05       26.97       26.89    
        26.80       26.70       26.59       26.47       26.34       26.20       26.05       25.88       25.70       25.49    
   3    27.61       27.61       27.60       27.59       27.58       27.56       27.54       27.52       27.49       27.46    
        27.42       27.38       27.34       27.29       27.24       27.18       27.12       27.05       26.97       26.89    
        26.80       26.70       26.59       26.47       26.34       26.20       26.05       25.88       25.70       25.49    
   4    27.61       27.61       27.60       27.59       27.58       27.56       27.54       27.52       27.49       27.46    
        27.42       27.38       27.34       27.29       27.24       27.18       27.12       27.05       26.97       26.89    
        26.80       26.70       26.59       26.47       26.34       26.20       26.05       25.88       25.70       25.49    
   5    27.61       27.61       27.60       27.59       27.58       27.56       27.54       27.52       27.49       27.46    
        27.42       27.38       27.34       27.29       27.24       27.18       27.12       27.05       26.97       26.89    
        26.80       26.70       26.59       26.47       26.34       26.20       26.05       25.88       25.70       25.49    
   6    27.61       27.61       27.60       27.59       27.58       27.56       27.54       27.52       27.49       27.46    
        27.42       27.38       27.34       27.29       27.24       27.18       27.12       27.05       26.97       26.89    
        26.80       26.70       26.59       26.47       26.34       26.20       26.05       25.88       25.70       25.49    
   7    27.61       27.61       27.60       27.59       27.58       27.56       27.54       27.52       27.49       27.46    
        27.42       27.38       27.34       27.29       27.24       27.18       27.12       27.05       26.97       26.89    
        26.80       26.70       26.59       26.47       26.34       26.20       26.05       25.88       25.70       25.49    
   8    27.61       27.61       27.60       27.59       27.58       27.56       27.54       27.52       27.49       27.46    
        27.42       27.38       27.34       27.29       27.24       27.18       27.12       27.05       26.97       26.89    
        26.80       26.70       26.59       26.47       26.34       26.20       26.05       25.88       25.70       25.49    
   9    27.61       27.61       27.60       27.59       27.58       27.56       27.54       27.52       27.49       27.46    
        27.42       27.38       27.34       27.29       27.24       27.18       27.12       27.05       26.97       26.89    
        26.80       26.70       26.59       26.47       26.34       26.20       26.05       25.88       25.70       25.49    
  10    27.61       27.61       27.60       27.59       27.58       27.56       27.54       27.52       27.49       27.46    
        27.42       27.38       27.34       27.29       27.24       27.18       27.12       27.05       26.97       26.89    
        26.80       26.70       26.59       26.47       26.34       26.20       26.05       25.88       25.70       25.49    
  11    27.61       27.61       27.60       27.59       27.58       27.56       27.54       27.52       27.49       27.46    
        27.42       27.38       27.34       27.29       27.24       27.18       27.12       27.05       26.97       26.89    
        26.80       26.70       26.59       26.47       26.34       26.20       26.05       25.88       25.70       25.49    
  12    27.61       27.61       27.60       27.59       27.58       27.56       27.54       27.52       27.49       27.46    
        27.42       27.38       27.34       27.29       27.24       27.18       27.12       27.05       26.97       26.89    
        26.80       26.70       26.59       26.47       26.34       26.20       26.05       25.88       25.70       25.49    
  13    27.61       27.61       27.60       27.59       27.58       27.56       27.54       27.52       27.49       27.46    
        27.42       27.38       27.34       27.29       27.24       27.18       27.12       27.05       26.97       26.89    
        26.80       26.70       26.59       26.47       26.34       26.20       26.05       25.88       25.70       25.49    
  14    27.61       27.61       27.60       27.59       27.58       27.56       27.54       27.52       27.49       27.46    
        27.42       27.38       27.34       27.29       27.24       27.18       27.12       27.05       26.97       26.89    
        26.80       26.70       26.59       26.47       26.34       26.20       26.05       25.88       25.70       25.49    
  15    27.61       27.61       27.60       27.59       27.58       27.56       27.54       27.52       27.49       27.46    
        27.42       27.38       27.34       27.29       27.24       27.18       27.12       27.05       26.97       26.89    
        26.80       26.70       26.59       26.47       26.34       26.20       26.05       25.88       25.70       25.49    
  16    27.61       27.61       27.60       27.59       27.58       27.56       27.54       27.52       27.49       27.46    
        27.42       27.38       27.34       27.29       27.24       27.18       27.12       27.05       26.97       26.89    
        26.80       26.70       26.59       26.47       26.34       26.20       26.05       25.88       25.70       25.49    
  17    27.61       27.61       27.60       27.59       27.58       27.56       27.54       27.52       27.49       27.46    
        27.42       27.38       27.34       27.29       27.24       27.18       27.12       27.05       26.97       26.89    
        26.80       26.70       26.59       26.47       26.34       26.20       26.05       25.88       25.70       25.49    
  18    27.61       27.61       27.60       27.59       27.58       27.56       27.54       27.52       27.49       27.46    
        27.42       27.38       27.34       27.29       27.24       27.18       27.12       27.05       26.97       26.89    
        26.80       26.70       26.59       26.47       26.34       26.20       26.05       25.88       25.70       25.49    
  19    27.61       27.61       27.60       27.59       27.58       27.56       27.54       27.52       27.49       27.46    
        27.42       27.38       27.34       27.29       27.24       27.18       27.12       27.05       26.97       26.89    
        26.80       26.70       26.59       26.47       26.34       26.20       26.05       25.88       25.70       25.49    
  20    27.61       27.61       27.60       27.59       27.58       27.56       27.54       27.52       27.49       27.46    
        27.42       27.38       27.34       27.29       27.24       27.18       27.12       27.05       26.97       26.89    
        26.80       26.70       26.59       26.47       26.34       26.20       26.05       25.88       25.70       25.49    
  21    27.61       27.61       27.60       27.59       27.58       27.56       27.54       27.52       27.49       27.46    
        27.42       27.38       27.34       27.29       27.24       27.18       27.12       27.05       26.97       26.89    
        26.80       26.70       26.59       26.47       26.34       26.20       26.05       25.88       25.70       25.49    
  22    27.61       27.61       27.60       27.59       27.58       27.56       27.54       27.52       27.49       27.46    
        27.42       27.38       27.34       27.29       27.24       27.18       27.12       27.05       26.97       26.89    
        26.80       26.70       26.59       26.47       26.34       26.20       26.05       25.88       25.70       25.49    
  23    27.61       27.61       27.60       27.59       27.58       27.56       27.54       27.52       27.49       27.46    
        27.42       27.38       27.34       27.29       27.24       27.18       27.12       27.05       26.97       26.89    
        26.80       26.70       26.59       26.47       26.34       26.20       26.05       25.88       25.70       25.49    
  24    27.61       27.61       27.60       27.59       27.58       27.56       27.54       27.52       27.49       27.46    
        27.42       27.38       27.34       27.29       27.24       27.18       27.12       27.05       26.97       26.89    
        26.80       26.70       26.59       26.47       26.34       26.20       26.05       25.88       25.70       25.49    
  25    27.61       27.61       27.60       27.59       27.58       27.56       27.54       27.52       27.49       27.46    
        27.42       27.38       27.34       27.29       27.24       27.18       27.12       27.05       26.97       26.89    
        26.80       26.70       26.59       26.47       26.34       26.20       26.05       25.88       25.70       25.49    
  26    27.61       27.61       27.60       27.59       27.58       27.56       27.54       27.52       27.49       27.46    
        27.42       27.38       27.34       27.29       27.24       27.18       27.12       27.05       26.97       26.89    
        26.80       26.70       26.59       26.47       26.34       26.20       26.05       25.88       25.70       25.49    
  27    27.61       27.61       27.60       27.59       27.58       27.56       27.54       27.52       27.49       27.46    
        27.42       27.38       27.34       27.29       27.24       27.18       27.12       27.05       26.97       26.89    
        26.80       26.70       26.59       26.47       26.34       26.20       26.05       25.88       25.70       25.49    
  28    27.61       27.61       27.60       27.59       27.58       27.56       27.54       27.52       27.49       27.46    
        27.42       27.38       27.34       27.29       27.24       27.18       27.12       27.05       26.97       26.89    
        26.80       26.70       26.59       26.47       26.34       26.20       26.05       25.88       25.70       25.49    
  29    27.61       27.61       27.60       27.59       27.58       27.56       27.54       27.52       27.49       27.46    
        27.42       27.38       27.34       27.29       27.24       27.18       27.12       27.05       26.97       26.89    
        26.80       26.70       26.59       26.47       26.34       26.20       26.05       25.88       25.70       25.49    
  30    27.61       27.61       27.60       27.59       27.58       27.56       27.54       27.52       27.49       27.46    
        27.42       27.38       27.34       27.29       27.24       27.18       27.12       27.05       26.97       26.89    
        26.80       26.70       26.59       26.47       26.34       26.20       26.05       25.88       25.70       25.49    

 HEAD WILL BE SAVED ON UNIT 1017 AT END OF TIME STEP   10, STRESS PERIOD   43


  VOLUME BUDGET FOR ENTIRE MODEL AT END OF TIME STEP   10, STRESS PERIOD  43
  ---------------------------------------------------------------------------------------------------

     CUMULATIVE VOLUME      L**3       RATES FOR THIS TIME STEP      L**3/T          PACKAGE NAME    
     ------------------                 ------------------------                     ----------------

           IN:                                      IN:
           ---                                      ---
              STO-SS =          72.7702                STO-SS =           0.1357     STORAGE         
              STO-SY =       46972.7447                STO-SY =          87.4277     STORAGE         
                 RCH =      205463.1056                   RCH =          47.6712     RCHA            
                 CHD =        4772.3889                   CHD =           0.0000     CHD             

            TOTAL IN =      257281.0094              TOTAL IN =         135.2346

          OUT:                                     OUT:
          ----                                     ----
              STO-SS =          61.6994                STO-SS =           0.0000     STORAGE         
              STO-SY =       40314.3955                STO-SY =           0.0000     STORAGE         
                 RCH =           0.0000                   RCH =           0.0000     RCHA            
                 CHD =      216904.2224                   CHD =         135.2265     CHD             

           TOTAL OUT =      257280.3174             TOTAL OUT =         135.2265

            IN - OUT =           0.6921              IN - OUT =       8.1013E-03

 PERCENT DISCREPANCY =           0.00     PERCENT DISCREPANCY =           0.01




         TIME SUMMARY AT END OF TIME STEP   10 IN STRESS PERIOD   43
                    SECONDS     MINUTES      HOURS       DAYS        YEARS
                    -----------------------------------------------------------
   TIME STEP LENGTH 2.59200E+05  4320.0      72.000      3.0000     8.21355E-03
 STRESS PERIOD TIME 2.59200E+06  43200.      720.00      30.000     8.21355E-02
         TOTAL TIME 1.08950E+08 1.81584E+06  30264.      1261.0      3.4524    

 OUTPUT CONTROL FOR STRESS PERIOD 44 IS REPEATED USING SETTINGS FROM A PREVIOUS STRESS PERIOD.


 STRESS PERIOD 44 IS TRANSIENT


                 RECHARGE =  0.1095890E-02
 UBDSV1 SAVING           STO-SS ON UNIT   1016 AT TIME STEP      1, STRESS PERIOD     44
 UBDSV1 SAVING           STO-SY ON UNIT   1016 AT TIME STEP      1, STRESS PERIOD     44
 UBDSV1 SAVING     FLOW-JA-FACE ON UNIT   1016 AT TIME STEP      1, STRESS PERIOD     44
 UBDSV06 SAVING              RCH IN MODEL TEST_TRANS       PACKAGE TEST_TRANS      CONNECTED TO MODEL TEST_TRANS       PACKAGE RCHA             ON UNIT   1016 AT TIME STEP      1, STRESS PERIOD     44
 UBDSV06 SAVING              CHD IN MODEL TEST_TRANS       PACKAGE TEST_TRANS      CONNECTED TO MODEL TEST_TRANS       PACKAGE CHD              ON UNIT   1016 AT TIME STEP      1, STRESS PERIOD     44
1
  HEAD IN LAYER   1 AT END OF TIME STEP   1 IN STRESS PERIOD   44
  ---------------------------------------------------------------------------

            1           2           3           4           5           6           7           8           9          10
           11          12          13          14          15          16          17          18          19          20
           21          22          23          24          25          26          27          28          29          30
 ........................................................................................................................
   1    27.61       27.60       27.60       27.59       27.57       27.56       27.54       27.51       27.48       27.45    
        27.42       27.38       27.33       27.28       27.23       27.17       27.11       27.04       26.96       26.87    
        26.78       26.68       26.57       26.45       26.31       26.16       25.99       25.79       25.54       25.20    
   2    27.61       27.60       27.60       27.59       27.57       27.56       27.54       27.51       27.48       27.45    
        27.42       27.38       27.33       27.28       27.23       27.17       27.11       27.04       26.96       26.87    
        26.78       26.68       26.57       26.45       26.31       26.16       25.99       25.79       25.54       25.20    
   3    27.61       27.60       27.60       27.59       27.57       27.56       27.54       27.51       27.48       27.45    
        27.42       27.38       27.33       27.28       27.23       27.17       27.11       27.04       26.96       26.87    
        26.78       26.68       26.57       26.45       26.31       26.16       25.99       25.79       25.54       25.20    
   4    27.61       27.60       27.60       27.59       27.57       27.56       27.54       27.51       27.48       27.45    
        27.42       27.38       27.33       27.28       27.23       27.17       27.11       27.04       26.96       26.87    
        26.78       26.68       26.57       26.45       26.31       26.16       25.99       25.79       25.54       25.20    
   5    27.61       27.60       27.60       27.59       27.57       27.56       27.54       27.51       27.48       27.45    
        27.42       27.38       27.33       27.28       27.23       27.17       27.11       27.04       26.96       26.87    
        26.78       26.68       26.57       26.45       26.31       26.16       25.99       25.79       25.54       25.20    
   6    27.61       27.60       27.60       27.59       27.57       27.56       27.54       27.51       27.48       27.45    
        27.42       27.38       27.33       27.28       27.23       27.17       27.11       27.04       26.96       26.87    
        26.78       26.68       26.57       26.45       26.31       26.16       25.99       25.79       25.54       25.20    
   7    27.61       27.60       27.60       27.59       27.57       27.56       27.54       27.51       27.48       27.45    
        27.42       27.38       27.33       27.28       27.23       27.17       27.11       27.04       26.96       26.87    
        26.78       26.68       26.57       26.45       26.31       26.16       25.99       25.79       25.54       25.20    
   8    27.61       27.60       27.60       27.59       27.57       27.56       27.54       27.51       27.48       27.45    
        27.42       27.38       27.33       27.28       27.23       27.17       27.11       27.04       26.96       26.87    
        26.78       26.68       26.57       26.45       26.31       26.16       25.99       25.79       25.54       25.20    
   9    27.61       27.60       27.60       27.59       27.57       27.56       27.54       27.51       27.48       27.45    
        27.42       27.38       27.33       27.28       27.23       27.17       27.11       27.04       26.96       26.87    
        26.78       26.68       26.57       26.45       26.31       26.16       25.99       25.79       25.54       25.20    
  10    27.61       27.60       27.60       27.59       27.57       27.56       27.54       27.51       27.48       27.45    
        27.42       27.38       27.33       27.28       27.23       27.17       27.11       27.04       26.96       26.87    
        26.78       26.68       26.57       26.45       26.31       26.16       25.99       25.79       25.54       25.20    
  11    27.61       27.60       27.60       27.59       27.57       27.56       27.54       27.51       27.48       27.45    
        27.42       27.38       27.33       27.28       27.23       27.17       27.11       27.04       26.96       26.87    
        26.78       26.68       26.57       26.45       26.31       26.16       25.99       25.79       25.54       25.20    
  12    27.61       27.60       27.60       27.59       27.57       27.56       27.54       27.51       27.48       27.45    
        27.42       27.38       27.33       27.28       27.23       27.17       27.11       27.04       26.96       26.87    
        26.78       26.68       26.57       26.45       26.31       26.16       25.99       25.79       25.54       25.20    
  13    27.61       27.60       27.60       27.59       27.57       27.56       27.54       27.51       27.48       27.45    
        27.42       27.38       27.33       27.28       27.23       27.17       27.11       27.04       26.96       26.87    
        26.78       26.68       26.57       26.45       26.31       26.16       25.99       25.79       25.54       25.20    
  14    27.61       27.60       27.60       27.59       27.57       27.56       27.54       27.51       27.48       27.45    
        27.42       27.38       27.33       27.28       27.23       27.17       27.11       27.04       26.96       26.87    
        26.78       26.68       26.57       26.45       26.31       26.16       25.99       25.79       25.54       25.20    
  15    27.61       27.60       27.60       27.59       27.57       27.56       27.54       27.51       27.48       27.45    
        27.42       27.38       27.33       27.28       27.23       27.17       27.11       27.04       26.96       26.87    
        26.78       26.68       26.57       26.45       26.31       26.16       25.99       25.79       25.54       25.20    
  16    27.61       27.60       27.60       27.59       27.57       27.56       27.54       27.51       27.48       27.45    
        27.42       27.38       27.33       27.28       27.23       27.17       27.11       27.04       26.96       26.87    
        26.78       26.68       26.57       26.45       26.31       26.16       25.99       25.79       25.54       25.20    
  17    27.61       27.60       27.60       27.59       27.57       27.56       27.54       27.51       27.48       27.45    
        27.42       27.38       27.33       27.28       27.23       27.17       27.11       27.04       26.96       26.87    
        26.78       26.68       26.57       26.45       26.31       26.16       25.99       25.79       25.54       25.20    
  18    27.61       27.60       27.60       27.59       27.57       27.56       27.54       27.51       27.48       27.45    
        27.42       27.38       27.33       27.28       27.23       27.17       27.11       27.04       26.96       26.87    
        26.78       26.68       26.57       26.45       26.31       26.16       25.99       25.79       25.54       25.20    
  19    27.61       27.60       27.60       27.59       27.57       27.56       27.54       27.51       27.48       27.45    
        27.42       27.38       27.33       27.28       27.23       27.17       27.11       27.04       26.96       26.87    
        26.78       26.68       26.57       26.45       26.31       26.16       25.99       25.79       25.54       25.20    
  20    27.61       27.60       27.60       27.59       27.57       27.56       27.54       27.51       27.48       27.45    
        27.42       27.38       27.33       27.28       27.23       27.17       27.11       27.04       26.96       26.87    
        26.78       26.68       26.57       26.45       26.31       26.16       25.99       25.79       25.54       25.20    
  21    27.61       27.60       27.60       27.59       27.57       27.56       27.54       27.51       27.48       27.45    
        27.42       27.38       27.33       27.28       27.23       27.17       27.11       27.04       26.96       26.87    
        26.78       26.68       26.57       26.45       26.31       26.16       25.99       25.79       25.54       25.20    
  22    27.61       27.60       27.60       27.59       27.57       27.56       27.54       27.51       27.48       27.45    
        27.42       27.38       27.33       27.28       27.23       27.17       27.11       27.04       26.96       26.87    
        26.78       26.68       26.57       26.45       26.31       26.16       25.99       25.79       25.54       25.20    
  23    27.61       27.60       27.60       27.59       27.57       27.56       27.54       27.51       27.48       27.45    
        27.42       27.38       27.33       27.28       27.23       27.17       27.11       27.04       26.96       26.87    
        26.78       26.68       26.57       26.45       26.31       26.16       25.99       25.79       25.54       25.20    
  24    27.61       27.60       27.60       27.59       27.57       27.56       27.54       27.51       27.48       27.45    
        27.42       27.38       27.33       27.28       27.23       27.17       27.11       27.04       26.96       26.87    
        26.78       26.68       26.57       26.45       26.31       26.16       25.99       25.79       25.54       25.20    
  25    27.61       27.60       27.60       27.59       27.57       27.56       27.54       27.51       27.48       27.45    
        27.42       27.38       27.33       27.28       27.23       27.17       27.11       27.04       26.96       26.87    
        26.78       26.68       26.57       26.45       26.31       26.16       25.99       25.79       25.54       25.20    
  26    27.61       27.60       27.60       27.59       27.57       27.56       27.54       27.51       27.48       27.45    
        27.42       27.38       27.33       27.28       27.23       27.17       27.11       27.04       26.96       26.87    
        26.78       26.68       26.57       26.45       26.31       26.16       25.99       25.79       25.54       25.20    
  27    27.61       27.60       27.60       27.59       27.57       27.56       27.54       27.51       27.48       27.45    
        27.42       27.38       27.33       27.28       27.23       27.17       27.11       27.04       26.96       26.87    
        26.78       26.68       26.57       26.45       26.31       26.16       25.99       25.79       25.54       25.20    
  28    27.61       27.60       27.60       27.59       27.57       27.56       27.54       27.51       27.48       27.45    
        27.42       27.38       27.33       27.28       27.23       27.17       27.11       27.04       26.96       26.87    
        26.78       26.68       26.57       26.45       26.31       26.16       25.99       25.79       25.54       25.20    
  29    27.61       27.60       27.60       27.59       27.57       27.56       27.54       27.51       27.48       27.45    
        27.42       27.38       27.33       27.28       27.23       27.17       27.11       27.04       26.96       26.87    
        26.78       26.68       26.57       26.45       26.31       26.16       25.99       25.79       25.54       25.20    
  30    27.61       27.60       27.60       27.59       27.57       27.56       27.54       27.51       27.48       27.45    
        27.42       27.38       27.33       27.28       27.23       27.17       27.11       27.04       26.96       26.87    
        26.78       26.68       26.57       26.45       26.31       26.16       25.99       25.79       25.54       25.20    

 HEAD WILL BE SAVED ON UNIT 1017 AT END OF TIME STEP    1, STRESS PERIOD   44



         TIME SUMMARY AT END OF TIME STEP    1 IN STRESS PERIOD   44
                    SECONDS     MINUTES      HOURS       DAYS        YEARS
                    -----------------------------------------------------------
   TIME STEP LENGTH 2.59200E+05  4320.0      72.000      3.0000     8.21355E-03
 STRESS PERIOD TIME 2.59200E+05  4320.0      72.000      3.0000     8.21355E-03
         TOTAL TIME 1.09210E+08 1.82016E+06  30336.      1264.0      3.4606    
 UBDSV1 SAVING           STO-SS ON UNIT   1016 AT TIME STEP      2, STRESS PERIOD     44
 UBDSV1 SAVING           STO-SY ON UNIT   1016 AT TIME STEP      2, STRESS PERIOD     44
 UBDSV1 SAVING     FLOW-JA-FACE ON UNIT   1016 AT TIME STEP      2, STRESS PERIOD     44
 UBDSV06 SAVING              RCH IN MODEL TEST_TRANS       PACKAGE TEST_TRANS      CONNECTED TO MODEL TEST_TRANS       PACKAGE RCHA             ON UNIT   1016 AT TIME STEP      2, STRESS PERIOD     44
 UBDSV06 SAVING              CHD IN MODEL TEST_TRANS       PACKAGE TEST_TRANS      CONNECTED TO MODEL TEST_TRANS       PACKAGE CHD              ON UNIT   1016 AT TIME STEP      2, STRESS PERIOD     44

 HEAD WILL BE SAVED ON UNIT 1017 AT END OF TIME STEP    2, STRESS PERIOD   44
 UBDSV1 SAVING           STO-SS ON UNIT   1016 AT TIME STEP      3, STRESS PERIOD     44
 UBDSV1 SAVING           STO-SY ON UNIT   1016 AT TIME STEP      3, STRESS PERIOD     44
 UBDSV1 SAVING     FLOW-JA-FACE ON UNIT   1016 AT TIME STEP      3, STRESS PERIOD     44
 UBDSV06 SAVING              RCH IN MODEL TEST_TRANS       PACKAGE TEST_TRANS      CONNECTED TO MODEL TEST_TRANS       PACKAGE RCHA             ON UNIT   1016 AT TIME STEP      3, STRESS PERIOD     44
 UBDSV06 SAVING              CHD IN MODEL TEST_TRANS       PACKAGE TEST_TRANS      CONNECTED TO MODEL TEST_TRANS       PACKAGE CHD              ON UNIT   1016 AT TIME STEP      3, STRESS PERIOD     44

 HEAD WILL BE SAVED ON UNIT 1017 AT END OF TIME STEP    3, STRESS PERIOD   44
 UBDSV1 SAVING           STO-SS ON UNIT   1016 AT TIME STEP      4, STRESS PERIOD     44
 UBDSV1 SAVING           STO-SY ON UNIT   1016 AT TIME STEP      4, STRESS PERIOD     44
 UBDSV1 SAVING     FLOW-JA-FACE ON UNIT   1016 AT TIME STEP      4, STRESS PERIOD     44
 UBDSV06 SAVING              RCH IN MODEL TEST_TRANS       PACKAGE TEST_TRANS      CONNECTED TO MODEL TEST_TRANS       PACKAGE RCHA             ON UNIT   1016 AT TIME STEP      4, STRESS PERIOD     44
 UBDSV06 SAVING              CHD IN MODEL TEST_TRANS       PACKAGE TEST_TRANS      CONNECTED TO MODEL TEST_TRANS       PACKAGE CHD              ON UNIT   1016 AT TIME STEP      4, STRESS PERIOD     44

 HEAD WILL BE SAVED ON UNIT 1017 AT END OF TIME STEP    4, STRESS PERIOD   44
 UBDSV1 SAVING           STO-SS ON UNIT   1016 AT TIME STEP      5, STRESS PERIOD     44
 UBDSV1 SAVING           STO-SY ON UNIT   1016 AT TIME STEP      5, STRESS PERIOD     44
 UBDSV1 SAVING     FLOW-JA-FACE ON UNIT   1016 AT TIME STEP      5, STRESS PERIOD     44
 UBDSV06 SAVING              RCH IN MODEL TEST_TRANS       PACKAGE TEST_TRANS      CONNECTED TO MODEL TEST_TRANS       PACKAGE RCHA             ON UNIT   1016 AT TIME STEP      5, STRESS PERIOD     44
 UBDSV06 SAVING              CHD IN MODEL TEST_TRANS       PACKAGE TEST_TRANS      CONNECTED TO MODEL TEST_TRANS       PACKAGE CHD              ON UNIT   1016 AT TIME STEP      5, STRESS PERIOD     44

 HEAD WILL BE SAVED ON UNIT 1017 AT END OF TIME STEP    5, STRESS PERIOD   44
 UBDSV1 SAVING           STO-SS ON UNIT   1016 AT TIME STEP      6, STRESS PERIOD     44
 UBDSV1 SAVING           STO-SY ON UNIT   1016 AT TIME STEP      6, STRESS PERIOD     44
 UBDSV1 SAVING     FLOW-JA-FACE ON UNIT   1016 AT TIME STEP      6, STRESS PERIOD     44
 UBDSV06 SAVING              RCH IN MODEL TEST_TRANS       PACKAGE TEST_TRANS      CONNECTED TO MODEL TEST_TRANS       PACKAGE RCHA             ON UNIT   1016 AT TIME STEP      6, STRESS PERIOD     44
 UBDSV06 SAVING              CHD IN MODEL TEST_TRANS       PACKAGE TEST_TRANS      CONNECTED TO MODEL TEST_TRANS       PACKAGE CHD              ON UNIT   1016 AT TIME STEP      6, STRESS PERIOD     44

 HEAD WILL BE SAVED ON UNIT 1017 AT END OF TIME STEP    6, STRESS PERIOD   44
 UBDSV1 SAVING           STO-SS ON UNIT   1016 AT TIME STEP      7, STRESS PERIOD     44
 UBDSV1 SAVING           STO-SY ON UNIT   1016 AT TIME STEP      7, STRESS PERIOD     44
 UBDSV1 SAVING     FLOW-JA-FACE ON UNIT   1016 AT TIME STEP      7, STRESS PERIOD     44
 UBDSV06 SAVING              RCH IN MODEL TEST_TRANS       PACKAGE TEST_TRANS      CONNECTED TO MODEL TEST_TRANS       PACKAGE RCHA             ON UNIT   1016 AT TIME STEP      7, STRESS PERIOD     44
 UBDSV06 SAVING              CHD IN MODEL TEST_TRANS       PACKAGE TEST_TRANS      CONNECTED TO MODEL TEST_TRANS       PACKAGE CHD              ON UNIT   1016 AT TIME STEP      7, STRESS PERIOD     44

 HEAD WILL BE SAVED ON UNIT 1017 AT END OF TIME STEP    7, STRESS PERIOD   44
 UBDSV1 SAVING           STO-SS ON UNIT   1016 AT TIME STEP      8, STRESS PERIOD     44
 UBDSV1 SAVING           STO-SY ON UNIT   1016 AT TIME STEP      8, STRESS PERIOD     44
 UBDSV1 SAVING     FLOW-JA-FACE ON UNIT   1016 AT TIME STEP      8, STRESS PERIOD     44
 UBDSV06 SAVING              RCH IN MODEL TEST_TRANS       PACKAGE TEST_TRANS      CONNECTED TO MODEL TEST_TRANS       PACKAGE RCHA             ON UNIT   1016 AT TIME STEP      8, STRESS PERIOD     44
 UBDSV06 SAVING              CHD IN MODEL TEST_TRANS       PACKAGE TEST_TRANS      CONNECTED TO MODEL TEST_TRANS       PACKAGE CHD              ON UNIT   1016 AT TIME STEP      8, STRESS PERIOD     44

 HEAD WILL BE SAVED ON UNIT 1017 AT END OF TIME STEP    8, STRESS PERIOD   44
 UBDSV1 SAVING           STO-SS ON UNIT   1016 AT TIME STEP      9, STRESS PERIOD     44
 UBDSV1 SAVING           STO-SY ON UNIT   1016 AT TIME STEP      9, STRESS PERIOD     44
 UBDSV1 SAVING     FLOW-JA-FACE ON UNIT   1016 AT TIME STEP      9, STRESS PERIOD     44
 UBDSV06 SAVING              RCH IN MODEL TEST_TRANS       PACKAGE TEST_TRANS      CONNECTED TO MODEL TEST_TRANS       PACKAGE RCHA             ON UNIT   1016 AT TIME STEP      9, STRESS PERIOD     44
 UBDSV06 SAVING              CHD IN MODEL TEST_TRANS       PACKAGE TEST_TRANS      CONNECTED TO MODEL TEST_TRANS       PACKAGE CHD              ON UNIT   1016 AT TIME STEP      9, STRESS PERIOD     44

 HEAD WILL BE SAVED ON UNIT 1017 AT END OF TIME STEP    9, STRESS PERIOD   44
 UBDSV1 SAVING           STO-SS ON UNIT   1016 AT TIME STEP     10, STRESS PERIOD     44
 UBDSV1 SAVING           STO-SY ON UNIT   1016 AT TIME STEP     10, STRESS PERIOD     44
 UBDSV1 SAVING     FLOW-JA-FACE ON UNIT   1016 AT TIME STEP     10, STRESS PERIOD     44
 UBDSV06 SAVING              RCH IN MODEL TEST_TRANS       PACKAGE TEST_TRANS      CONNECTED TO MODEL TEST_TRANS       PACKAGE RCHA             ON UNIT   1016 AT TIME STEP     10, STRESS PERIOD     44
 UBDSV06 SAVING              CHD IN MODEL TEST_TRANS       PACKAGE TEST_TRANS      CONNECTED TO MODEL TEST_TRANS       PACKAGE CHD              ON UNIT   1016 AT TIME STEP     10, STRESS PERIOD     44
1
  HEAD IN LAYER   1 AT END OF TIME STEP  10 IN STRESS PERIOD   44
  ---------------------------------------------------------------------------

            1           2           3           4           5           6           7           8           9          10
           11          12          13          14          15          16          17          18          19          20
           21          22          23          24          25          26          27          28          29          30
 ........................................................................................................................
   1    27.57       27.56       27.55       27.54       27.53       27.51       27.49       27.46       27.43       27.39    
        27.35       27.31       27.26       27.21       27.15       27.08       27.01       26.93       26.85       26.76    
        26.66       26.55       26.43       26.30       26.16       26.00       25.83       25.64       25.44       25.20    
   2    27.57       27.56       27.55       27.54       27.53       27.51       27.49       27.46       27.43       27.39    
        27.35       27.31       27.26       27.21       27.15       27.08       27.01       26.93       26.85       26.76    
        26.66       26.55       26.43       26.30       26.16       26.00       25.83       25.64       25.44       25.20    
   3    27.57       27.56       27.55       27.54       27.53       27.51       27.49       27.46       27.43       27.39    
        27.35       27.31       27.26       27.21       27.15       27.08       27.01       26.93       26.85       26.76    
        26.66       26.55       26.43       26.30       26.16       26.00       25.83       25.64       25.44       25.20    
   4    27.57       27.56       27.55       27.54       27.53       27.51       27.49       27.46       27.43       27.39    
        27.35       27.31       27.26       27.21       27.15       27.08       27.01       26.93       26.85       26.76    
        26.66       26.55       26.43       26.30       26.16       26.00       25.83       25.64       25.44       25.20    
   5    27.57       27.56       27.55       27.54       27.53       27.51       27.49       27.46       27.43       27.39    
        27.35       27.31       27.26       27.21       27.15       27.08       27.01       26.93       26.85       26.76    
        26.66       26.55       26.43       26.30       26.16       26.00       25.83       25.64       25.44       25.20    
   6    27.57       27.56       27.55       27.54       27.53       27.51       27.49       27.46       27.43       27.39    
        27.35       27.31       27.26       27.21       27.15       27.08       27.01       26.93       26.85       26.76    
        26.66       26.55       26.43       26.30       26.16       26.00       25.83       25.64       25.44       25.20    
   7    27.57       27.56       27.55       27.54       27.53       27.51       27.49       27.46       27.43       27.39    
        27.35       27.31       27.26       27.21       27.15       27.08       27.01       26.93       26.85       26.76    
        26.66       26.55       26.43       26.30       26.16       26.00       25.83       25.64       25.44       25.20    
   8    27.57       27.56       27.55       27.54       27.53       27.51       27.49       27.46       27.43       27.39    
        27.35       27.31       27.26       27.21       27.15       27.08       27.01       26.93       26.85       26.76    
        26.66       26.55       26.43       26.30       26.16       26.00       25.83       25.64       25.44       25.20    
   9    27.57       27.56       27.55       27.54       27.53       27.51       27.49       27.46       27.43       27.39    
        27.35       27.31       27.26       27.21       27.15       27.08       27.01       26.93       26.85       26.76    
        26.66       26.55       26.43       26.30       26.16       26.00       25.83       25.64       25.44       25.20    
  10    27.57       27.56       27.55       27.54       27.53       27.51       27.49       27.46       27.43       27.39    
        27.35       27.31       27.26       27.21       27.15       27.08       27.01       26.93       26.85       26.76    
        26.66       26.55       26.43       26.30       26.16       26.00       25.83       25.64       25.44       25.20    
  11    27.57       27.56       27.55       27.54       27.53       27.51       27.49       27.46       27.43       27.39    
        27.35       27.31       27.26       27.21       27.15       27.08       27.01       26.93       26.85       26.76    
        26.66       26.55       26.43       26.30       26.16       26.00       25.83       25.64       25.44       25.20    
  12    27.57       27.56       27.55       27.54       27.53       27.51       27.49       27.46       27.43       27.39    
        27.35       27.31       27.26       27.21       27.15       27.08       27.01       26.93       26.85       26.76    
        26.66       26.55       26.43       26.30       26.16       26.00       25.83       25.64       25.44       25.20    
  13    27.57       27.56       27.55       27.54       27.53       27.51       27.49       27.46       27.43       27.39    
        27.35       27.31       27.26       27.21       27.15       27.08       27.01       26.93       26.85       26.76    
        26.66       26.55       26.43       26.30       26.16       26.00       25.83       25.64       25.44       25.20    
  14    27.57       27.56       27.55       27.54       27.53       27.51       27.49       27.46       27.43       27.39    
        27.35       27.31       27.26       27.21       27.15       27.08       27.01       26.93       26.85       26.76    
        26.66       26.55       26.43       26.30       26.16       26.00       25.83       25.64       25.44       25.20    
  15    27.57       27.56       27.55       27.54       27.53       27.51       27.49       27.46       27.43       27.39    
        27.35       27.31       27.26       27.21       27.15       27.08       27.01       26.93       26.85       26.76    
        26.66       26.55       26.43       26.30       26.16       26.00       25.83       25.64       25.44       25.20    
  16    27.57       27.56       27.55       27.54       27.53       27.51       27.49       27.46       27.43       27.39    
        27.35       27.31       27.26       27.21       27.15       27.08       27.01       26.93       26.85       26.76    
        26.66       26.55       26.43       26.30       26.16       26.00       25.83       25.64       25.44       25.20    
  17    27.57       27.56       27.55       27.54       27.53       27.51       27.49       27.46       27.43       27.39    
        27.35       27.31       27.26       27.21       27.15       27.08       27.01       26.93       26.85       26.76    
        26.66       26.55       26.43       26.30       26.16       26.00       25.83       25.64       25.44       25.20    
  18    27.57       27.56       27.55       27.54       27.53       27.51       27.49       27.46       27.43       27.39    
        27.35       27.31       27.26       27.21       27.15       27.08       27.01       26.93       26.85       26.76    
        26.66       26.55       26.43       26.30       26.16       26.00       25.83       25.64       25.44       25.20    
  19    27.57       27.56       27.55       27.54       27.53       27.51       27.49       27.46       27.43       27.39    
        27.35       27.31       27.26       27.21       27.15       27.08       27.01       26.93       26.85       26.76    
        26.66       26.55       26.43       26.30       26.16       26.00       25.83       25.64       25.44       25.20    
  20    27.57       27.56       27.55       27.54       27.53       27.51       27.49       27.46       27.43       27.39    
        27.35       27.31       27.26       27.21       27.15       27.08       27.01       26.93       26.85       26.76    
        26.66       26.55       26.43       26.30       26.16       26.00       25.83       25.64       25.44       25.20    
  21    27.57       27.56       27.55       27.54       27.53       27.51       27.49       27.46       27.43       27.39    
        27.35       27.31       27.26       27.21       27.15       27.08       27.01       26.93       26.85       26.76    
        26.66       26.55       26.43       26.30       26.16       26.00       25.83       25.64       25.44       25.20    
  22    27.57       27.56       27.55       27.54       27.53       27.51       27.49       27.46       27.43       27.39    
        27.35       27.31       27.26       27.21       27.15       27.08       27.01       26.93       26.85       26.76    
        26.66       26.55       26.43       26.30       26.16       26.00       25.83       25.64       25.44       25.20    
  23    27.57       27.56       27.55       27.54       27.53       27.51       27.49       27.46       27.43       27.39    
        27.35       27.31       27.26       27.21       27.15       27.08       27.01       26.93       26.85       26.76    
        26.66       26.55       26.43       26.30       26.16       26.00       25.83       25.64       25.44       25.20    
  24    27.57       27.56       27.55       27.54       27.53       27.51       27.49       27.46       27.43       27.39    
        27.35       27.31       27.26       27.21       27.15       27.08       27.01       26.93       26.85       26.76    
        26.66       26.55       26.43       26.30       26.16       26.00       25.83       25.64       25.44       25.20    
  25    27.57       27.56       27.55       27.54       27.53       27.51       27.49       27.46       27.43       27.39    
        27.35       27.31       27.26       27.21       27.15       27.08       27.01       26.93       26.85       26.76    
        26.66       26.55       26.43       26.30       26.16       26.00       25.83       25.64       25.44       25.20    
  26    27.57       27.56       27.55       27.54       27.53       27.51       27.49       27.46       27.43       27.39    
        27.35       27.31       27.26       27.21       27.15       27.08       27.01       26.93       26.85       26.76    
        26.66       26.55       26.43       26.30       26.16       26.00       25.83       25.64       25.44       25.20    
  27    27.57       27.56       27.55       27.54       27.53       27.51       27.49       27.46       27.43       27.39    
        27.35       27.31       27.26       27.21       27.15       27.08       27.01       26.93       26.85       26.76    
        26.66       26.55       26.43       26.30       26.16       26.00       25.83       25.64       25.44       25.20    
  28    27.57       27.56       27.55       27.54       27.53       27.51       27.49       27.46       27.43       27.39    
        27.35       27.31       27.26       27.21       27.15       27.08       27.01       26.93       26.85       26.76    
        26.66       26.55       26.43       26.30       26.16       26.00       25.83       25.64       25.44       25.20    
  29    27.57       27.56       27.55       27.54       27.53       27.51       27.49       27.46       27.43       27.39    
        27.35       27.31       27.26       27.21       27.15       27.08       27.01       26.93       26.85       26.76    
        26.66       26.55       26.43       26.30       26.16       26.00       25.83       25.64       25.44       25.20    
  30    27.57       27.56       27.55       27.54       27.53       27.51       27.49       27.46       27.43       27.39    
        27.35       27.31       27.26       27.21       27.15       27.08       27.01       26.93       26.85       26.76    
        26.66       26.55       26.43       26.30       26.16       26.00       25.83       25.64       25.44       25.20    

 HEAD WILL BE SAVED ON UNIT 1017 AT END OF TIME STEP   10, STRESS PERIOD   44


  VOLUME BUDGET FOR ENTIRE MODEL AT END OF TIME STEP   10, STRESS PERIOD  44
  ---------------------------------------------------------------------------------------------------

     CUMULATIVE VOLUME      L**3       RATES FOR THIS TIME STEP      L**3/T          PACKAGE NAME    
     ------------------                 ------------------------                     ----------------

           IN:                                      IN:
           ---                                      ---
              STO-SS =          75.6704                STO-SS =       7.0490E-02     STORAGE         
              STO-SY =       48887.5679                STO-SY =          45.7449     STORAGE         
                 RCH =      208323.3785                   RCH =          95.3424     RCHA            
                 CHD =        4772.3889                   CHD =           0.0000     CHD             

            TOTAL IN =      262059.0056              TOTAL IN =         141.1578

          OUT:                                     OUT:
          ----                                     ----
              STO-SS =          61.6994                STO-SS =           0.0000     STORAGE         
              STO-SY =       40314.3955                STO-SY =           0.0000     STORAGE         
                 RCH =           0.0000                   RCH =           0.0000     RCHA            
                 CHD =      221682.1044                   CHD =         141.1535     CHD             

           TOTAL OUT =      262058.1994             TOTAL OUT =         141.1535

            IN - OUT =           0.8063              IN - OUT =       4.3218E-03

 PERCENT DISCREPANCY =           0.00     PERCENT DISCREPANCY =           0.00




         TIME SUMMARY AT END OF TIME STEP   10 IN STRESS PERIOD   44
                    SECONDS     MINUTES      HOURS       DAYS        YEARS
                    -----------------------------------------------------------
   TIME STEP LENGTH 2.59200E+05  4320.0      72.000      3.0000     8.21355E-03
 STRESS PERIOD TIME 2.59200E+06  43200.      720.00      30.000     8.21355E-02
         TOTAL TIME 1.11542E+08 1.85904E+06  30984.      1291.0      3.5346    

 OUTPUT CONTROL FOR STRESS PERIOD 45 IS REPEATED USING SETTINGS FROM A PREVIOUS STRESS PERIOD.


 STRESS PERIOD 45 IS TRANSIENT


                 RECHARGE =  0.1643840E-02
 UBDSV1 SAVING           STO-SS ON UNIT   1016 AT TIME STEP      1, STRESS PERIOD     45
 UBDSV1 SAVING           STO-SY ON UNIT   1016 AT TIME STEP      1, STRESS PERIOD     45
 UBDSV1 SAVING     FLOW-JA-FACE ON UNIT   1016 AT TIME STEP      1, STRESS PERIOD     45
 UBDSV06 SAVING              RCH IN MODEL TEST_TRANS       PACKAGE TEST_TRANS      CONNECTED TO MODEL TEST_TRANS       PACKAGE RCHA             ON UNIT   1016 AT TIME STEP      1, STRESS PERIOD     45
 UBDSV06 SAVING              CHD IN MODEL TEST_TRANS       PACKAGE TEST_TRANS      CONNECTED TO MODEL TEST_TRANS       PACKAGE CHD              ON UNIT   1016 AT TIME STEP      1, STRESS PERIOD     45
1
  HEAD IN LAYER   1 AT END OF TIME STEP   1 IN STRESS PERIOD   45
  ---------------------------------------------------------------------------

            1           2           3           4           5           6           7           8           9          10
           11          12          13          14          15          16          17          18          19          20
           21          22          23          24          25          26          27          28          29          30
 ........................................................................................................................
   1    27.57       27.56       27.56       27.55       27.53       27.51       27.49       27.46       27.43       27.40    
        27.36       27.31       27.26       27.21       27.15       27.08       27.01       26.93       26.85       26.75    
        26.65       26.54       26.42       26.29       26.14       25.98       25.79       25.58       25.31       24.94    
   2    27.57       27.56       27.56       27.55       27.53       27.51       27.49       27.46       27.43       27.40    
        27.36       27.31       27.26       27.21       27.15       27.08       27.01       26.93       26.85       26.75    
        26.65       26.54       26.42       26.29       26.14       25.98       25.79       25.58       25.31       24.94    
   3    27.57       27.56       27.56       27.55       27.53       27.51       27.49       27.46       27.43       27.40    
        27.36       27.31       27.26       27.21       27.15       27.08       27.01       26.93       26.85       26.75    
        26.65       26.54       26.42       26.29       26.14       25.98       25.79       25.58       25.31       24.94    
   4    27.57       27.56       27.56       27.55       27.53       27.51       27.49       27.46       27.43       27.40    
        27.36       27.31       27.26       27.21       27.15       27.08       27.01       26.93       26.85       26.75    
        26.65       26.54       26.42       26.29       26.14       25.98       25.79       25.58       25.31       24.94    
   5    27.57       27.56       27.56       27.55       27.53       27.51       27.49       27.46       27.43       27.40    
        27.36       27.31       27.26       27.21       27.15       27.08       27.01       26.93       26.85       26.75    
        26.65       26.54       26.42       26.29       26.14       25.98       25.79       25.58       25.31       24.94    
   6    27.57       27.56       27.56       27.55       27.53       27.51       27.49       27.46       27.43       27.40    
        27.36       27.31       27.26       27.21       27.15       27.08       27.01       26.93       26.85       26.75    
        26.65       26.54       26.42       26.29       26.14       25.98       25.79       25.58       25.31       24.94    
   7    27.57       27.56       27.56       27.55       27.53       27.51       27.49       27.46       27.43       27.40    
        27.36       27.31       27.26       27.21       27.15       27.08       27.01       26.93       26.85       26.75    
        26.65       26.54       26.42       26.29       26.14       25.98       25.79       25.58       25.31       24.94    
   8    27.57       27.56       27.56       27.55       27.53       27.51       27.49       27.46       27.43       27.40    
        27.36       27.31       27.26       27.21       27.15       27.08       27.01       26.93       26.85       26.75    
        26.65       26.54       26.42       26.29       26.14       25.98       25.79       25.58       25.31       24.94    
   9    27.57       27.56       27.56       27.55       27.53       27.51       27.49       27.46       27.43       27.40    
        27.36       27.31       27.26       27.21       27.15       27.08       27.01       26.93       26.85       26.75    
        26.65       26.54       26.42       26.29       26.14       25.98       25.79       25.58       25.31       24.94    
  10    27.57       27.56       27.56       27.55       27.53       27.51       27.49       27.46       27.43       27.40    
        27.36       27.31       27.26       27.21       27.15       27.08       27.01       26.93       26.85       26.75    
        26.65       26.54       26.42       26.29       26.14       25.98       25.79       25.58       25.31       24.94    
  11    27.57       27.56       27.56       27.55       27.53       27.51       27.49       27.46       27.43       27.40    
        27.36       27.31       27.26       27.21       27.15       27.08       27.01       26.93       26.85       26.75    
        26.65       26.54       26.42       26.29       26.14       25.98       25.79       25.58       25.31       24.94    
  12    27.57       27.56       27.56       27.55       27.53       27.51       27.49       27.46       27.43       27.40    
        27.36       27.31       27.26       27.21       27.15       27.08       27.01       26.93       26.85       26.75    
        26.65       26.54       26.42       26.29       26.14       25.98       25.79       25.58       25.31       24.94    
  13    27.57       27.56       27.56       27.55       27.53       27.51       27.49       27.46       27.43       27.40    
        27.36       27.31       27.26       27.21       27.15       27.08       27.01       26.93       26.85       26.75    
        26.65       26.54       26.42       26.29       26.14       25.98       25.79       25.58       25.31       24.94    
  14    27.57       27.56       27.56       27.55       27.53       27.51       27.49       27.46       27.43       27.40    
        27.36       27.31       27.26       27.21       27.15       27.08       27.01       26.93       26.85       26.75    
        26.65       26.54       26.42       26.29       26.14       25.98       25.79       25.58       25.31       24.94    
  15    27.57       27.56       27.56       27.55       27.53       27.51       27.49       27.46       27.43       27.40    
        27.36       27.31       27.26       27.21       27.15       27.08       27.01       26.93       26.85       26.75    
        26.65       26.54       26.42       26.29       26.14       25.98       25.79       25.58       25.31       24.94    
  16    27.57       27.56       27.56       27.55       27.53       27.51       27.49       27.46       27.43       27.40    
        27.36       27.31       27.26       27.21       27.15       27.08       27.01       26.93       26.85       26.75    
        26.65       26.54       26.42       26.29       26.14       25.98       25.79       25.58       25.31       24.94    
  17    27.57       27.56       27.56       27.55       27.53       27.51       27.49       27.46       27.43       27.40    
        27.36       27.31       27.26       27.21       27.15       27.08       27.01       26.93       26.85       26.75    
        26.65       26.54       26.42       26.29       26.14       25.98       25.79       25.58       25.31       24.94    
  18    27.57       27.56       27.56       27.55       27.53       27.51       27.49       27.46       27.43       27.40    
        27.36       27.31       27.26       27.21       27.15       27.08       27.01       26.93       26.85       26.75    
        26.65       26.54       26.42       26.29       26.14       25.98       25.79       25.58       25.31       24.94    
  19    27.57       27.56       27.56       27.55       27.53       27.51       27.49       27.46       27.43       27.40    
        27.36       27.31       27.26       27.21       27.15       27.08       27.01       26.93       26.85       26.75    
        26.65       26.54       26.42       26.29       26.14       25.98       25.79       25.58       25.31       24.94    
  20    27.57       27.56       27.56       27.55       27.53       27.51       27.49       27.46       27.43       27.40    
        27.36       27.31       27.26       27.21       27.15       27.08       27.01       26.93       26.85       26.75    
        26.65       26.54       26.42       26.29       26.14       25.98       25.79       25.58       25.31       24.94    
  21    27.57       27.56       27.56       27.55       27.53       27.51       27.49       27.46       27.43       27.40    
        27.36       27.31       27.26       27.21       27.15       27.08       27.01       26.93       26.85       26.75    
        26.65       26.54       26.42       26.29       26.14       25.98       25.79       25.58       25.31       24.94    
  22    27.57       27.56       27.56       27.55       27.53       27.51       27.49       27.46       27.43       27.40    
        27.36       27.31       27.26       27.21       27.15       27.08       27.01       26.93       26.85       26.75    
        26.65       26.54       26.42       26.29       26.14       25.98       25.79       25.58       25.31       24.94    
  23    27.57       27.56       27.56       27.55       27.53       27.51       27.49       27.46       27.43       27.40    
        27.36       27.31       27.26       27.21       27.15       27.08       27.01       26.93       26.85       26.75    
        26.65       26.54       26.42       26.29       26.14       25.98       25.79       25.58       25.31       24.94    
  24    27.57       27.56       27.56       27.55       27.53       27.51       27.49       27.46       27.43       27.40    
        27.36       27.31       27.26       27.21       27.15       27.08       27.01       26.93       26.85       26.75    
        26.65       26.54       26.42       26.29       26.14       25.98       25.79       25.58       25.31       24.94    
  25    27.57       27.56       27.56       27.55       27.53       27.51       27.49       27.46       27.43       27.40    
        27.36       27.31       27.26       27.21       27.15       27.08       27.01       26.93       26.85       26.75    
        26.65       26.54       26.42       26.29       26.14       25.98       25.79       25.58       25.31       24.94    
  26    27.57       27.56       27.56       27.55       27.53       27.51       27.49       27.46       27.43       27.40    
        27.36       27.31       27.26       27.21       27.15       27.08       27.01       26.93       26.85       26.75    
        26.65       26.54       26.42       26.29       26.14       25.98       25.79       25.58       25.31       24.94    
  27    27.57       27.56       27.56       27.55       27.53       27.51       27.49       27.46       27.43       27.40    
        27.36       27.31       27.26       27.21       27.15       27.08       27.01       26.93       26.85       26.75    
        26.65       26.54       26.42       26.29       26.14       25.98       25.79       25.58       25.31       24.94    
  28    27.57       27.56       27.56       27.55       27.53       27.51       27.49       27.46       27.43       27.40    
        27.36       27.31       27.26       27.21       27.15       27.08       27.01       26.93       26.85       26.75    
        26.65       26.54       26.42       26.29       26.14       25.98       25.79       25.58       25.31       24.94    
  29    27.57       27.56       27.56       27.55       27.53       27.51       27.49       27.46       27.43       27.40    
        27.36       27.31       27.26       27.21       27.15       27.08       27.01       26.93       26.85       26.75    
        26.65       26.54       26.42       26.29       26.14       25.98       25.79       25.58       25.31       24.94    
  30    27.57       27.56       27.56       27.55       27.53       27.51       27.49       27.46       27.43       27.40    
        27.36       27.31       27.26       27.21       27.15       27.08       27.01       26.93       26.85       26.75    
        26.65       26.54       26.42       26.29       26.14       25.98       25.79       25.58       25.31       24.94    

 HEAD WILL BE SAVED ON UNIT 1017 AT END OF TIME STEP    1, STRESS PERIOD   45



         TIME SUMMARY AT END OF TIME STEP    1 IN STRESS PERIOD   45
                    SECONDS     MINUTES      HOURS       DAYS        YEARS
                    -----------------------------------------------------------
   TIME STEP LENGTH 2.59200E+05  4320.0      72.000      3.0000     8.21355E-03
 STRESS PERIOD TIME 2.59200E+05  4320.0      72.000      3.0000     8.21355E-03
         TOTAL TIME 1.11802E+08 1.86336E+06  31056.      1294.0      3.5428    
 UBDSV1 SAVING           STO-SS ON UNIT   1016 AT TIME STEP      2, STRESS PERIOD     45
 UBDSV1 SAVING           STO-SY ON UNIT   1016 AT TIME STEP      2, STRESS PERIOD     45
 UBDSV1 SAVING     FLOW-JA-FACE ON UNIT   1016 AT TIME STEP      2, STRESS PERIOD     45
 UBDSV06 SAVING              RCH IN MODEL TEST_TRANS       PACKAGE TEST_TRANS      CONNECTED TO MODEL TEST_TRANS       PACKAGE RCHA             ON UNIT   1016 AT TIME STEP      2, STRESS PERIOD     45
 UBDSV06 SAVING              CHD IN MODEL TEST_TRANS       PACKAGE TEST_TRANS      CONNECTED TO MODEL TEST_TRANS       PACKAGE CHD              ON UNIT   1016 AT TIME STEP      2, STRESS PERIOD     45

 HEAD WILL BE SAVED ON UNIT 1017 AT END OF TIME STEP    2, STRESS PERIOD   45
 UBDSV1 SAVING           STO-SS ON UNIT   1016 AT TIME STEP      3, STRESS PERIOD     45
 UBDSV1 SAVING           STO-SY ON UNIT   1016 AT TIME STEP      3, STRESS PERIOD     45
 UBDSV1 SAVING     FLOW-JA-FACE ON UNIT   1016 AT TIME STEP      3, STRESS PERIOD     45
 UBDSV06 SAVING              RCH IN MODEL TEST_TRANS       PACKAGE TEST_TRANS      CONNECTED TO MODEL TEST_TRANS       PACKAGE RCHA             ON UNIT   1016 AT TIME STEP      3, STRESS PERIOD     45
 UBDSV06 SAVING              CHD IN MODEL TEST_TRANS       PACKAGE TEST_TRANS      CONNECTED TO MODEL TEST_TRANS       PACKAGE CHD              ON UNIT   1016 AT TIME STEP      3, STRESS PERIOD     45

 HEAD WILL BE SAVED ON UNIT 1017 AT END OF TIME STEP    3, STRESS PERIOD   45
 UBDSV1 SAVING           STO-SS ON UNIT   1016 AT TIME STEP      4, STRESS PERIOD     45
 UBDSV1 SAVING           STO-SY ON UNIT   1016 AT TIME STEP      4, STRESS PERIOD     45
 UBDSV1 SAVING     FLOW-JA-FACE ON UNIT   1016 AT TIME STEP      4, STRESS PERIOD     45
 UBDSV06 SAVING              RCH IN MODEL TEST_TRANS       PACKAGE TEST_TRANS      CONNECTED TO MODEL TEST_TRANS       PACKAGE RCHA             ON UNIT   1016 AT TIME STEP      4, STRESS PERIOD     45
 UBDSV06 SAVING              CHD IN MODEL TEST_TRANS       PACKAGE TEST_TRANS      CONNECTED TO MODEL TEST_TRANS       PACKAGE CHD              ON UNIT   1016 AT TIME STEP      4, STRESS PERIOD     45

 HEAD WILL BE SAVED ON UNIT 1017 AT END OF TIME STEP    4, STRESS PERIOD   45
 UBDSV1 SAVING           STO-SS ON UNIT   1016 AT TIME STEP      5, STRESS PERIOD     45
 UBDSV1 SAVING           STO-SY ON UNIT   1016 AT TIME STEP      5, STRESS PERIOD     45
 UBDSV1 SAVING     FLOW-JA-FACE ON UNIT   1016 AT TIME STEP      5, STRESS PERIOD     45
 UBDSV06 SAVING              RCH IN MODEL TEST_TRANS       PACKAGE TEST_TRANS      CONNECTED TO MODEL TEST_TRANS       PACKAGE RCHA             ON UNIT   1016 AT TIME STEP      5, STRESS PERIOD     45
 UBDSV06 SAVING              CHD IN MODEL TEST_TRANS       PACKAGE TEST_TRANS      CONNECTED TO MODEL TEST_TRANS       PACKAGE CHD              ON UNIT   1016 AT TIME STEP      5, STRESS PERIOD     45

 HEAD WILL BE SAVED ON UNIT 1017 AT END OF TIME STEP    5, STRESS PERIOD   45
 UBDSV1 SAVING           STO-SS ON UNIT   1016 AT TIME STEP      6, STRESS PERIOD     45
 UBDSV1 SAVING           STO-SY ON UNIT   1016 AT TIME STEP      6, STRESS PERIOD     45
 UBDSV1 SAVING     FLOW-JA-FACE ON UNIT   1016 AT TIME STEP      6, STRESS PERIOD     45
 UBDSV06 SAVING              RCH IN MODEL TEST_TRANS       PACKAGE TEST_TRANS      CONNECTED TO MODEL TEST_TRANS       PACKAGE RCHA             ON UNIT   1016 AT TIME STEP      6, STRESS PERIOD     45
 UBDSV06 SAVING              CHD IN MODEL TEST_TRANS       PACKAGE TEST_TRANS      CONNECTED TO MODEL TEST_TRANS       PACKAGE CHD              ON UNIT   1016 AT TIME STEP      6, STRESS PERIOD     45

 HEAD WILL BE SAVED ON UNIT 1017 AT END OF TIME STEP    6, STRESS PERIOD   45
 UBDSV1 SAVING           STO-SS ON UNIT   1016 AT TIME STEP      7, STRESS PERIOD     45
 UBDSV1 SAVING           STO-SY ON UNIT   1016 AT TIME STEP      7, STRESS PERIOD     45
 UBDSV1 SAVING     FLOW-JA-FACE ON UNIT   1016 AT TIME STEP      7, STRESS PERIOD     45
 UBDSV06 SAVING              RCH IN MODEL TEST_TRANS       PACKAGE TEST_TRANS      CONNECTED TO MODEL TEST_TRANS       PACKAGE RCHA             ON UNIT   1016 AT TIME STEP      7, STRESS PERIOD     45
 UBDSV06 SAVING              CHD IN MODEL TEST_TRANS       PACKAGE TEST_TRANS      CONNECTED TO MODEL TEST_TRANS       PACKAGE CHD              ON UNIT   1016 AT TIME STEP      7, STRESS PERIOD     45

 HEAD WILL BE SAVED ON UNIT 1017 AT END OF TIME STEP    7, STRESS PERIOD   45
 UBDSV1 SAVING           STO-SS ON UNIT   1016 AT TIME STEP      8, STRESS PERIOD     45
 UBDSV1 SAVING           STO-SY ON UNIT   1016 AT TIME STEP      8, STRESS PERIOD     45
 UBDSV1 SAVING     FLOW-JA-FACE ON UNIT   1016 AT TIME STEP      8, STRESS PERIOD     45
 UBDSV06 SAVING              RCH IN MODEL TEST_TRANS       PACKAGE TEST_TRANS      CONNECTED TO MODEL TEST_TRANS       PACKAGE RCHA             ON UNIT   1016 AT TIME STEP      8, STRESS PERIOD     45
 UBDSV06 SAVING              CHD IN MODEL TEST_TRANS       PACKAGE TEST_TRANS      CONNECTED TO MODEL TEST_TRANS       PACKAGE CHD              ON UNIT   1016 AT TIME STEP      8, STRESS PERIOD     45

 HEAD WILL BE SAVED ON UNIT 1017 AT END OF TIME STEP    8, STRESS PERIOD   45
 UBDSV1 SAVING           STO-SS ON UNIT   1016 AT TIME STEP      9, STRESS PERIOD     45
 UBDSV1 SAVING           STO-SY ON UNIT   1016 AT TIME STEP      9, STRESS PERIOD     45
 UBDSV1 SAVING     FLOW-JA-FACE ON UNIT   1016 AT TIME STEP      9, STRESS PERIOD     45
 UBDSV06 SAVING              RCH IN MODEL TEST_TRANS       PACKAGE TEST_TRANS      CONNECTED TO MODEL TEST_TRANS       PACKAGE RCHA             ON UNIT   1016 AT TIME STEP      9, STRESS PERIOD     45
 UBDSV06 SAVING              CHD IN MODEL TEST_TRANS       PACKAGE TEST_TRANS      CONNECTED TO MODEL TEST_TRANS       PACKAGE CHD              ON UNIT   1016 AT TIME STEP      9, STRESS PERIOD     45

 HEAD WILL BE SAVED ON UNIT 1017 AT END OF TIME STEP    9, STRESS PERIOD   45
 UBDSV1 SAVING           STO-SS ON UNIT   1016 AT TIME STEP     10, STRESS PERIOD     45
 UBDSV1 SAVING           STO-SY ON UNIT   1016 AT TIME STEP     10, STRESS PERIOD     45
 UBDSV1 SAVING     FLOW-JA-FACE ON UNIT   1016 AT TIME STEP     10, STRESS PERIOD     45
 UBDSV06 SAVING              RCH IN MODEL TEST_TRANS       PACKAGE TEST_TRANS      CONNECTED TO MODEL TEST_TRANS       PACKAGE RCHA             ON UNIT   1016 AT TIME STEP     10, STRESS PERIOD     45
 UBDSV06 SAVING              CHD IN MODEL TEST_TRANS       PACKAGE TEST_TRANS      CONNECTED TO MODEL TEST_TRANS       PACKAGE CHD              ON UNIT   1016 AT TIME STEP     10, STRESS PERIOD     45
1
  HEAD IN LAYER   1 AT END OF TIME STEP  10 IN STRESS PERIOD   45
  ---------------------------------------------------------------------------

            1           2           3           4           5           6           7           8           9          10
           11          12          13          14          15          16          17          18          19          20
           21          22          23          24          25          26          27          28          29          30
 ........................................................................................................................
   1    27.58       27.58       27.57       27.56       27.54       27.52       27.50       27.47       27.43       27.40    
        27.35       27.31       27.25       27.19       27.13       27.06       26.98       26.90       26.81       26.71    
        26.60       26.48       26.35       26.21       26.05       25.88       25.69       25.48       25.23       24.94    
   2    27.58       27.58       27.57       27.56       27.54       27.52       27.50       27.47       27.43       27.40    
        27.35       27.31       27.25       27.19       27.13       27.06       26.98       26.90       26.81       26.71    
        26.60       26.48       26.35       26.21       26.05       25.88       25.69       25.48       25.23       24.94    
   3    27.58       27.58       27.57       27.56       27.54       27.52       27.50       27.47       27.43       27.40    
        27.35       27.31       27.25       27.19       27.13       27.06       26.98       26.90       26.81       26.71    
        26.60       26.48       26.35       26.21       26.05       25.88       25.69       25.48       25.23       24.94    
   4    27.58       27.58       27.57       27.56       27.54       27.52       27.50       27.47       27.43       27.40    
        27.35       27.31       27.25       27.19       27.13       27.06       26.98       26.90       26.81       26.71    
        26.60       26.48       26.35       26.21       26.05       25.88       25.69       25.48       25.23       24.94    
   5    27.58       27.58       27.57       27.56       27.54       27.52       27.50       27.47       27.43       27.40    
        27.35       27.31       27.25       27.19       27.13       27.06       26.98       26.90       26.81       26.71    
        26.60       26.48       26.35       26.21       26.05       25.88       25.69       25.48       25.23       24.94    
   6    27.58       27.58       27.57       27.56       27.54       27.52       27.50       27.47       27.43       27.40    
        27.35       27.31       27.25       27.19       27.13       27.06       26.98       26.90       26.81       26.71    
        26.60       26.48       26.35       26.21       26.05       25.88       25.69       25.48       25.23       24.94    
   7    27.58       27.58       27.57       27.56       27.54       27.52       27.50       27.47       27.43       27.40    
        27.35       27.31       27.25       27.19       27.13       27.06       26.98       26.90       26.81       26.71    
        26.60       26.48       26.35       26.21       26.05       25.88       25.69       25.48       25.23       24.94    
   8    27.58       27.58       27.57       27.56       27.54       27.52       27.50       27.47       27.43       27.40    
        27.35       27.31       27.25       27.19       27.13       27.06       26.98       26.90       26.81       26.71    
        26.60       26.48       26.35       26.21       26.05       25.88       25.69       25.48       25.23       24.94    
   9    27.58       27.58       27.57       27.56       27.54       27.52       27.50       27.47       27.43       27.40    
        27.35       27.31       27.25       27.19       27.13       27.06       26.98       26.90       26.81       26.71    
        26.60       26.48       26.35       26.21       26.05       25.88       25.69       25.48       25.23       24.94    
  10    27.58       27.58       27.57       27.56       27.54       27.52       27.50       27.47       27.43       27.40    
        27.35       27.31       27.25       27.19       27.13       27.06       26.98       26.90       26.81       26.71    
        26.60       26.48       26.35       26.21       26.05       25.88       25.69       25.48       25.23       24.94    
  11    27.58       27.58       27.57       27.56       27.54       27.52       27.50       27.47       27.43       27.40    
        27.35       27.31       27.25       27.19       27.13       27.06       26.98       26.90       26.81       26.71    
        26.60       26.48       26.35       26.21       26.05       25.88       25.69       25.48       25.23       24.94    
  12    27.58       27.58       27.57       27.56       27.54       27.52       27.50       27.47       27.43       27.40    
        27.35       27.31       27.25       27.19       27.13       27.06       26.98       26.90       26.81       26.71    
        26.60       26.48       26.35       26.21       26.05       25.88       25.69       25.48       25.23       24.94    
  13    27.58       27.58       27.57       27.56       27.54       27.52       27.50       27.47       27.43       27.40    
        27.35       27.31       27.25       27.19       27.13       27.06       26.98       26.90       26.81       26.71    
        26.60       26.48       26.35       26.21       26.05       25.88       25.69       25.48       25.23       24.94    
  14    27.58       27.58       27.57       27.56       27.54       27.52       27.50       27.47       27.43       27.40    
        27.35       27.31       27.25       27.19       27.13       27.06       26.98       26.90       26.81       26.71    
        26.60       26.48       26.35       26.21       26.05       25.88       25.69       25.48       25.23       24.94    
  15    27.58       27.58       27.57       27.56       27.54       27.52       27.50       27.47       27.43       27.40    
        27.35       27.31       27.25       27.19       27.13       27.06       26.98       26.90       26.81       26.71    
        26.60       26.48       26.35       26.21       26.05       25.88       25.69       25.48       25.23       24.94    
  16    27.58       27.58       27.57       27.56       27.54       27.52       27.50       27.47       27.43       27.40    
        27.35       27.31       27.25       27.19       27.13       27.06       26.98       26.90       26.81       26.71    
        26.60       26.48       26.35       26.21       26.05       25.88       25.69       25.48       25.23       24.94    
  17    27.58       27.58       27.57       27.56       27.54       27.52       27.50       27.47       27.43       27.40    
        27.35       27.31       27.25       27.19       27.13       27.06       26.98       26.90       26.81       26.71    
        26.60       26.48       26.35       26.21       26.05       25.88       25.69       25.48       25.23       24.94    
  18    27.58       27.58       27.57       27.56       27.54       27.52       27.50       27.47       27.43       27.40    
        27.35       27.31       27.25       27.19       27.13       27.06       26.98       26.90       26.81       26.71    
        26.60       26.48       26.35       26.21       26.05       25.88       25.69       25.48       25.23       24.94    
  19    27.58       27.58       27.57       27.56       27.54       27.52       27.50       27.47       27.43       27.40    
        27.35       27.31       27.25       27.19       27.13       27.06       26.98       26.90       26.81       26.71    
        26.60       26.48       26.35       26.21       26.05       25.88       25.69       25.48       25.23       24.94    
  20    27.58       27.58       27.57       27.56       27.54       27.52       27.50       27.47       27.43       27.40    
        27.35       27.31       27.25       27.19       27.13       27.06       26.98       26.90       26.81       26.71    
        26.60       26.48       26.35       26.21       26.05       25.88       25.69       25.48       25.23       24.94    
  21    27.58       27.58       27.57       27.56       27.54       27.52       27.50       27.47       27.43       27.40    
        27.35       27.31       27.25       27.19       27.13       27.06       26.98       26.90       26.81       26.71    
        26.60       26.48       26.35       26.21       26.05       25.88       25.69       25.48       25.23       24.94    
  22    27.58       27.58       27.57       27.56       27.54       27.52       27.50       27.47       27.43       27.40    
        27.35       27.31       27.25       27.19       27.13       27.06       26.98       26.90       26.81       26.71    
        26.60       26.48       26.35       26.21       26.05       25.88       25.69       25.48       25.23       24.94    
  23    27.58       27.58       27.57       27.56       27.54       27.52       27.50       27.47       27.43       27.40    
        27.35       27.31       27.25       27.19       27.13       27.06       26.98       26.90       26.81       26.71    
        26.60       26.48       26.35       26.21       26.05       25.88       25.69       25.48       25.23       24.94    
  24    27.58       27.58       27.57       27.56       27.54       27.52       27.50       27.47       27.43       27.40    
        27.35       27.31       27.25       27.19       27.13       27.06       26.98       26.90       26.81       26.71    
        26.60       26.48       26.35       26.21       26.05       25.88       25.69       25.48       25.23       24.94    
  25    27.58       27.58       27.57       27.56       27.54       27.52       27.50       27.47       27.43       27.40    
        27.35       27.31       27.25       27.19       27.13       27.06       26.98       26.90       26.81       26.71    
        26.60       26.48       26.35       26.21       26.05       25.88       25.69       25.48       25.23       24.94    
  26    27.58       27.58       27.57       27.56       27.54       27.52       27.50       27.47       27.43       27.40    
        27.35       27.31       27.25       27.19       27.13       27.06       26.98       26.90       26.81       26.71    
        26.60       26.48       26.35       26.21       26.05       25.88       25.69       25.48       25.23       24.94    
  27    27.58       27.58       27.57       27.56       27.54       27.52       27.50       27.47       27.43       27.40    
        27.35       27.31       27.25       27.19       27.13       27.06       26.98       26.90       26.81       26.71    
        26.60       26.48       26.35       26.21       26.05       25.88       25.69       25.48       25.23       24.94    
  28    27.58       27.58       27.57       27.56       27.54       27.52       27.50       27.47       27.43       27.40    
        27.35       27.31       27.25       27.19       27.13       27.06       26.98       26.90       26.81       26.71    
        26.60       26.48       26.35       26.21       26.05       25.88       25.69       25.48       25.23       24.94    
  29    27.58       27.58       27.57       27.56       27.54       27.52       27.50       27.47       27.43       27.40    
        27.35       27.31       27.25       27.19       27.13       27.06       26.98       26.90       26.81       26.71    
        26.60       26.48       26.35       26.21       26.05       25.88       25.69       25.48       25.23       24.94    
  30    27.58       27.58       27.57       27.56       27.54       27.52       27.50       27.47       27.43       27.40    
        27.35       27.31       27.25       27.19       27.13       27.06       26.98       26.90       26.81       26.71    
        26.60       26.48       26.35       26.21       26.05       25.88       25.69       25.48       25.23       24.94    

 HEAD WILL BE SAVED ON UNIT 1017 AT END OF TIME STEP   10, STRESS PERIOD   45


  VOLUME BUDGET FOR ENTIRE MODEL AT END OF TIME STEP   10, STRESS PERIOD  45
  ---------------------------------------------------------------------------------------------------

     CUMULATIVE VOLUME      L**3       RATES FOR THIS TIME STEP      L**3/T          PACKAGE NAME    
     ------------------                 ------------------------                     ----------------

           IN:                                      IN:
           ---                                      ---
              STO-SS =          76.7646                STO-SS =       1.8110E-02     STORAGE         
              STO-SY =       49638.4423                STO-SY =          12.0966     STORAGE         
                 RCH =      212613.8009                   RCH =         143.0141     RCHA            
                 CHD =        4772.3889                   CHD =           0.0000     CHD             

            TOTAL IN =      267101.3967              TOTAL IN =         155.1288

          OUT:                                     OUT:
          ----                                     ----
              STO-SS =          61.8126                STO-SS =       1.3100E-03     STORAGE         
              STO-SY =       40385.0304                STO-SY =           0.8157     STORAGE         
                 RCH =           0.0000                   RCH =           0.0000     RCHA            
                 CHD =      226653.6928                   CHD =         154.3093     CHD             

           TOTAL OUT =      267100.5358             TOTAL OUT =         155.1263

            IN - OUT =           0.8609              IN - OUT =       2.5314E-03

 PERCENT DISCREPANCY =           0.00     PERCENT DISCREPANCY =           0.00




         TIME SUMMARY AT END OF TIME STEP   10 IN STRESS PERIOD   45
                    SECONDS     MINUTES      HOURS       DAYS        YEARS
                    -----------------------------------------------------------
   TIME STEP LENGTH 2.59200E+05  4320.0      72.000      3.0000     8.21355E-03
 STRESS PERIOD TIME 2.59200E+06  43200.      720.00      30.000     8.21355E-02
         TOTAL TIME 1.14134E+08 1.90224E+06  31704.      1321.0      3.6167    

 OUTPUT CONTROL FOR STRESS PERIOD 46 IS REPEATED USING SETTINGS FROM A PREVIOUS STRESS PERIOD.


 STRESS PERIOD 46 IS TRANSIENT


                 RECHARGE =  0.2191780E-02
 UBDSV1 SAVING           STO-SS ON UNIT   1016 AT TIME STEP      1, STRESS PERIOD     46
 UBDSV1 SAVING           STO-SY ON UNIT   1016 AT TIME STEP      1, STRESS PERIOD     46
 UBDSV1 SAVING     FLOW-JA-FACE ON UNIT   1016 AT TIME STEP      1, STRESS PERIOD     46
 UBDSV06 SAVING              RCH IN MODEL TEST_TRANS       PACKAGE TEST_TRANS      CONNECTED TO MODEL TEST_TRANS       PACKAGE RCHA             ON UNIT   1016 AT TIME STEP      1, STRESS PERIOD     46
 UBDSV06 SAVING              CHD IN MODEL TEST_TRANS       PACKAGE TEST_TRANS      CONNECTED TO MODEL TEST_TRANS       PACKAGE CHD              ON UNIT   1016 AT TIME STEP      1, STRESS PERIOD     46
1
  HEAD IN LAYER   1 AT END OF TIME STEP   1 IN STRESS PERIOD   46
  ---------------------------------------------------------------------------

            1           2           3           4           5           6           7           8           9          10
           11          12          13          14          15          16          17          18          19          20
           21          22          23          24          25          26          27          28          29          30
 ........................................................................................................................
   1    27.59       27.59       27.58       27.57       27.55       27.53       27.51       27.48       27.44       27.40    
        27.36       27.31       27.26       27.20       27.14       27.06       26.99       26.90       26.81       26.71    
        26.60       26.48       26.35       26.20       26.03       25.85       25.62       25.35       24.98       24.34    
   2    27.59       27.59       27.58       27.57       27.55       27.53       27.51       27.48       27.44       27.40    
        27.36       27.31       27.26       27.20       27.14       27.06       26.99       26.90       26.81       26.71    
        26.60       26.48       26.35       26.20       26.03       25.85       25.62       25.35       24.98       24.34    
   3    27.59       27.59       27.58       27.57       27.55       27.53       27.51       27.48       27.44       27.40    
        27.36       27.31       27.26       27.20       27.14       27.06       26.99       26.90       26.81       26.71    
        26.60       26.48       26.35       26.20       26.03       25.85       25.62       25.35       24.98       24.34    
   4    27.59       27.59       27.58       27.57       27.55       27.53       27.51       27.48       27.44       27.40    
        27.36       27.31       27.26       27.20       27.14       27.06       26.99       26.90       26.81       26.71    
        26.60       26.48       26.35       26.20       26.03       25.85       25.62       25.35       24.98       24.34    
   5    27.59       27.59       27.58       27.57       27.55       27.53       27.51       27.48       27.44       27.40    
        27.36       27.31       27.26       27.20       27.14       27.06       26.99       26.90       26.81       26.71    
        26.60       26.48       26.35       26.20       26.03       25.85       25.62       25.35       24.98       24.34    
   6    27.59       27.59       27.58       27.57       27.55       27.53       27.51       27.48       27.44       27.40    
        27.36       27.31       27.26       27.20       27.14       27.06       26.99       26.90       26.81       26.71    
        26.60       26.48       26.35       26.20       26.03       25.85       25.62       25.35       24.98       24.34    
   7    27.59       27.59       27.58       27.57       27.55       27.53       27.51       27.48       27.44       27.40    
        27.36       27.31       27.26       27.20       27.14       27.06       26.99       26.90       26.81       26.71    
        26.60       26.48       26.35       26.20       26.03       25.85       25.62       25.35       24.98       24.34    
   8    27.59       27.59       27.58       27.57       27.55       27.53       27.51       27.48       27.44       27.40    
        27.36       27.31       27.26       27.20       27.14       27.06       26.99       26.90       26.81       26.71    
        26.60       26.48       26.35       26.20       26.03       25.85       25.62       25.35       24.98       24.34    
   9    27.59       27.59       27.58       27.57       27.55       27.53       27.51       27.48       27.44       27.40    
        27.36       27.31       27.26       27.20       27.14       27.06       26.99       26.90       26.81       26.71    
        26.60       26.48       26.35       26.20       26.03       25.85       25.62       25.35       24.98       24.34    
  10    27.59       27.59       27.58       27.57       27.55       27.53       27.51       27.48       27.44       27.40    
        27.36       27.31       27.26       27.20       27.14       27.06       26.99       26.90       26.81       26.71    
        26.60       26.48       26.35       26.20       26.03       25.85       25.62       25.35       24.98       24.34    
  11    27.59       27.59       27.58       27.57       27.55       27.53       27.51       27.48       27.44       27.40    
        27.36       27.31       27.26       27.20       27.14       27.06       26.99       26.90       26.81       26.71    
        26.60       26.48       26.35       26.20       26.03       25.85       25.62       25.35       24.98       24.34    
  12    27.59       27.59       27.58       27.57       27.55       27.53       27.51       27.48       27.44       27.40    
        27.36       27.31       27.26       27.20       27.14       27.06       26.99       26.90       26.81       26.71    
        26.60       26.48       26.35       26.20       26.03       25.85       25.62       25.35       24.98       24.34    
  13    27.59       27.59       27.58       27.57       27.55       27.53       27.51       27.48       27.44       27.40    
        27.36       27.31       27.26       27.20       27.14       27.06       26.99       26.90       26.81       26.71    
        26.60       26.48       26.35       26.20       26.03       25.85       25.62       25.35       24.98       24.34    
  14    27.59       27.59       27.58       27.57       27.55       27.53       27.51       27.48       27.44       27.40    
        27.36       27.31       27.26       27.20       27.14       27.06       26.99       26.90       26.81       26.71    
        26.60       26.48       26.35       26.20       26.03       25.85       25.62       25.35       24.98       24.34    
  15    27.59       27.59       27.58       27.57       27.55       27.53       27.51       27.48       27.44       27.40    
        27.36       27.31       27.26       27.20       27.14       27.06       26.99       26.90       26.81       26.71    
        26.60       26.48       26.35       26.20       26.03       25.85       25.62       25.35       24.98       24.34    
  16    27.59       27.59       27.58       27.57       27.55       27.53       27.51       27.48       27.44       27.40    
        27.36       27.31       27.26       27.20       27.14       27.06       26.99       26.90       26.81       26.71    
        26.60       26.48       26.35       26.20       26.03       25.85       25.62       25.35       24.98       24.34    
  17    27.59       27.59       27.58       27.57       27.55       27.53       27.51       27.48       27.44       27.40    
        27.36       27.31       27.26       27.20       27.14       27.06       26.99       26.90       26.81       26.71    
        26.60       26.48       26.35       26.20       26.03       25.85       25.62       25.35       24.98       24.34    
  18    27.59       27.59       27.58       27.57       27.55       27.53       27.51       27.48       27.44       27.40    
        27.36       27.31       27.26       27.20       27.14       27.06       26.99       26.90       26.81       26.71    
        26.60       26.48       26.35       26.20       26.03       25.85       25.62       25.35       24.98       24.34    
  19    27.59       27.59       27.58       27.57       27.55       27.53       27.51       27.48       27.44       27.40    
        27.36       27.31       27.26       27.20       27.14       27.06       26.99       26.90       26.81       26.71    
        26.60       26.48       26.35       26.20       26.03       25.85       25.62       25.35       24.98       24.34    
  20    27.59       27.59       27.58       27.57       27.55       27.53       27.51       27.48       27.44       27.40    
        27.36       27.31       27.26       27.20       27.14       27.06       26.99       26.90       26.81       26.71    
        26.60       26.48       26.35       26.20       26.03       25.85       25.62       25.35       24.98       24.34    
  21    27.59       27.59       27.58       27.57       27.55       27.53       27.51       27.48       27.44       27.40    
        27.36       27.31       27.26       27.20       27.14       27.06       26.99       26.90       26.81       26.71    
        26.60       26.48       26.35       26.20       26.03       25.85       25.62       25.35       24.98       24.34    
  22    27.59       27.59       27.58       27.57       27.55       27.53       27.51       27.48       27.44       27.40    
        27.36       27.31       27.26       27.20       27.14       27.06       26.99       26.90       26.81       26.71    
        26.60       26.48       26.35       26.20       26.03       25.85       25.62       25.35       24.98       24.34    
  23    27.59       27.59       27.58       27.57       27.55       27.53       27.51       27.48       27.44       27.40    
        27.36       27.31       27.26       27.20       27.14       27.06       26.99       26.90       26.81       26.71    
        26.60       26.48       26.35       26.20       26.03       25.85       25.62       25.35       24.98       24.34    
  24    27.59       27.59       27.58       27.57       27.55       27.53       27.51       27.48       27.44       27.40    
        27.36       27.31       27.26       27.20       27.14       27.06       26.99       26.90       26.81       26.71    
        26.60       26.48       26.35       26.20       26.03       25.85       25.62       25.35       24.98       24.34    
  25    27.59       27.59       27.58       27.57       27.55       27.53       27.51       27.48       27.44       27.40    
        27.36       27.31       27.26       27.20       27.14       27.06       26.99       26.90       26.81       26.71    
        26.60       26.48       26.35       26.20       26.03       25.85       25.62       25.35       24.98       24.34    
  26    27.59       27.59       27.58       27.57       27.55       27.53       27.51       27.48       27.44       27.40    
        27.36       27.31       27.26       27.20       27.14       27.06       26.99       26.90       26.81       26.71    
        26.60       26.48       26.35       26.20       26.03       25.85       25.62       25.35       24.98       24.34    
  27    27.59       27.59       27.58       27.57       27.55       27.53       27.51       27.48       27.44       27.40    
        27.36       27.31       27.26       27.20       27.14       27.06       26.99       26.90       26.81       26.71    
        26.60       26.48       26.35       26.20       26.03       25.85       25.62       25.35       24.98       24.34    
  28    27.59       27.59       27.58       27.57       27.55       27.53       27.51       27.48       27.44       27.40    
        27.36       27.31       27.26       27.20       27.14       27.06       26.99       26.90       26.81       26.71    
        26.60       26.48       26.35       26.20       26.03       25.85       25.62       25.35       24.98       24.34    
  29    27.59       27.59       27.58       27.57       27.55       27.53       27.51       27.48       27.44       27.40    
        27.36       27.31       27.26       27.20       27.14       27.06       26.99       26.90       26.81       26.71    
        26.60       26.48       26.35       26.20       26.03       25.85       25.62       25.35       24.98       24.34    
  30    27.59       27.59       27.58       27.57       27.55       27.53       27.51       27.48       27.44       27.40    
        27.36       27.31       27.26       27.20       27.14       27.06       26.99       26.90       26.81       26.71    
        26.60       26.48       26.35       26.20       26.03       25.85       25.62       25.35       24.98       24.34    

 HEAD WILL BE SAVED ON UNIT 1017 AT END OF TIME STEP    1, STRESS PERIOD   46



         TIME SUMMARY AT END OF TIME STEP    1 IN STRESS PERIOD   46
                    SECONDS     MINUTES      HOURS       DAYS        YEARS
                    -----------------------------------------------------------
   TIME STEP LENGTH 2.59200E+05  4320.0      72.000      3.0000     8.21355E-03
 STRESS PERIOD TIME 2.59200E+05  4320.0      72.000      3.0000     8.21355E-03
         TOTAL TIME 1.14394E+08 1.90656E+06  31776.      1324.0      3.6249    
 UBDSV1 SAVING           STO-SS ON UNIT   1016 AT TIME STEP      2, STRESS PERIOD     46
 UBDSV1 SAVING           STO-SY ON UNIT   1016 AT TIME STEP      2, STRESS PERIOD     46
 UBDSV1 SAVING     FLOW-JA-FACE ON UNIT   1016 AT TIME STEP      2, STRESS PERIOD     46
 UBDSV06 SAVING              RCH IN MODEL TEST_TRANS       PACKAGE TEST_TRANS      CONNECTED TO MODEL TEST_TRANS       PACKAGE RCHA             ON UNIT   1016 AT TIME STEP      2, STRESS PERIOD     46
 UBDSV06 SAVING              CHD IN MODEL TEST_TRANS       PACKAGE TEST_TRANS      CONNECTED TO MODEL TEST_TRANS       PACKAGE CHD              ON UNIT   1016 AT TIME STEP      2, STRESS PERIOD     46

 HEAD WILL BE SAVED ON UNIT 1017 AT END OF TIME STEP    2, STRESS PERIOD   46
 UBDSV1 SAVING           STO-SS ON UNIT   1016 AT TIME STEP      3, STRESS PERIOD     46
 UBDSV1 SAVING           STO-SY ON UNIT   1016 AT TIME STEP      3, STRESS PERIOD     46
 UBDSV1 SAVING     FLOW-JA-FACE ON UNIT   1016 AT TIME STEP      3, STRESS PERIOD     46
 UBDSV06 SAVING              RCH IN MODEL TEST_TRANS       PACKAGE TEST_TRANS      CONNECTED TO MODEL TEST_TRANS       PACKAGE RCHA             ON UNIT   1016 AT TIME STEP      3, STRESS PERIOD     46
 UBDSV06 SAVING              CHD IN MODEL TEST_TRANS       PACKAGE TEST_TRANS      CONNECTED TO MODEL TEST_TRANS       PACKAGE CHD              ON UNIT   1016 AT TIME STEP      3, STRESS PERIOD     46

 HEAD WILL BE SAVED ON UNIT 1017 AT END OF TIME STEP    3, STRESS PERIOD   46
 UBDSV1 SAVING           STO-SS ON UNIT   1016 AT TIME STEP      4, STRESS PERIOD     46
 UBDSV1 SAVING           STO-SY ON UNIT   1016 AT TIME STEP      4, STRESS PERIOD     46
 UBDSV1 SAVING     FLOW-JA-FACE ON UNIT   1016 AT TIME STEP      4, STRESS PERIOD     46
 UBDSV06 SAVING              RCH IN MODEL TEST_TRANS       PACKAGE TEST_TRANS      CONNECTED TO MODEL TEST_TRANS       PACKAGE RCHA             ON UNIT   1016 AT TIME STEP      4, STRESS PERIOD     46
 UBDSV06 SAVING              CHD IN MODEL TEST_TRANS       PACKAGE TEST_TRANS      CONNECTED TO MODEL TEST_TRANS       PACKAGE CHD              ON UNIT   1016 AT TIME STEP      4, STRESS PERIOD     46

 HEAD WILL BE SAVED ON UNIT 1017 AT END OF TIME STEP    4, STRESS PERIOD   46
 UBDSV1 SAVING           STO-SS ON UNIT   1016 AT TIME STEP      5, STRESS PERIOD     46
 UBDSV1 SAVING           STO-SY ON UNIT   1016 AT TIME STEP      5, STRESS PERIOD     46
 UBDSV1 SAVING     FLOW-JA-FACE ON UNIT   1016 AT TIME STEP      5, STRESS PERIOD     46
 UBDSV06 SAVING              RCH IN MODEL TEST_TRANS       PACKAGE TEST_TRANS      CONNECTED TO MODEL TEST_TRANS       PACKAGE RCHA             ON UNIT   1016 AT TIME STEP      5, STRESS PERIOD     46
 UBDSV06 SAVING              CHD IN MODEL TEST_TRANS       PACKAGE TEST_TRANS      CONNECTED TO MODEL TEST_TRANS       PACKAGE CHD              ON UNIT   1016 AT TIME STEP      5, STRESS PERIOD     46

 HEAD WILL BE SAVED ON UNIT 1017 AT END OF TIME STEP    5, STRESS PERIOD   46
 UBDSV1 SAVING           STO-SS ON UNIT   1016 AT TIME STEP      6, STRESS PERIOD     46
 UBDSV1 SAVING           STO-SY ON UNIT   1016 AT TIME STEP      6, STRESS PERIOD     46
 UBDSV1 SAVING     FLOW-JA-FACE ON UNIT   1016 AT TIME STEP      6, STRESS PERIOD     46
 UBDSV06 SAVING              RCH IN MODEL TEST_TRANS       PACKAGE TEST_TRANS      CONNECTED TO MODEL TEST_TRANS       PACKAGE RCHA             ON UNIT   1016 AT TIME STEP      6, STRESS PERIOD     46
 UBDSV06 SAVING              CHD IN MODEL TEST_TRANS       PACKAGE TEST_TRANS      CONNECTED TO MODEL TEST_TRANS       PACKAGE CHD              ON UNIT   1016 AT TIME STEP      6, STRESS PERIOD     46

 HEAD WILL BE SAVED ON UNIT 1017 AT END OF TIME STEP    6, STRESS PERIOD   46
 UBDSV1 SAVING           STO-SS ON UNIT   1016 AT TIME STEP      7, STRESS PERIOD     46
 UBDSV1 SAVING           STO-SY ON UNIT   1016 AT TIME STEP      7, STRESS PERIOD     46
 UBDSV1 SAVING     FLOW-JA-FACE ON UNIT   1016 AT TIME STEP      7, STRESS PERIOD     46
 UBDSV06 SAVING              RCH IN MODEL TEST_TRANS       PACKAGE TEST_TRANS      CONNECTED TO MODEL TEST_TRANS       PACKAGE RCHA             ON UNIT   1016 AT TIME STEP      7, STRESS PERIOD     46
 UBDSV06 SAVING              CHD IN MODEL TEST_TRANS       PACKAGE TEST_TRANS      CONNECTED TO MODEL TEST_TRANS       PACKAGE CHD              ON UNIT   1016 AT TIME STEP      7, STRESS PERIOD     46

 HEAD WILL BE SAVED ON UNIT 1017 AT END OF TIME STEP    7, STRESS PERIOD   46
 UBDSV1 SAVING           STO-SS ON UNIT   1016 AT TIME STEP      8, STRESS PERIOD     46
 UBDSV1 SAVING           STO-SY ON UNIT   1016 AT TIME STEP      8, STRESS PERIOD     46
 UBDSV1 SAVING     FLOW-JA-FACE ON UNIT   1016 AT TIME STEP      8, STRESS PERIOD     46
 UBDSV06 SAVING              RCH IN MODEL TEST_TRANS       PACKAGE TEST_TRANS      CONNECTED TO MODEL TEST_TRANS       PACKAGE RCHA             ON UNIT   1016 AT TIME STEP      8, STRESS PERIOD     46
 UBDSV06 SAVING              CHD IN MODEL TEST_TRANS       PACKAGE TEST_TRANS      CONNECTED TO MODEL TEST_TRANS       PACKAGE CHD              ON UNIT   1016 AT TIME STEP      8, STRESS PERIOD     46

 HEAD WILL BE SAVED ON UNIT 1017 AT END OF TIME STEP    8, STRESS PERIOD   46
 UBDSV1 SAVING           STO-SS ON UNIT   1016 AT TIME STEP      9, STRESS PERIOD     46
 UBDSV1 SAVING           STO-SY ON UNIT   1016 AT TIME STEP      9, STRESS PERIOD     46
 UBDSV1 SAVING     FLOW-JA-FACE ON UNIT   1016 AT TIME STEP      9, STRESS PERIOD     46
 UBDSV06 SAVING              RCH IN MODEL TEST_TRANS       PACKAGE TEST_TRANS      CONNECTED TO MODEL TEST_TRANS       PACKAGE RCHA             ON UNIT   1016 AT TIME STEP      9, STRESS PERIOD     46
 UBDSV06 SAVING              CHD IN MODEL TEST_TRANS       PACKAGE TEST_TRANS      CONNECTED TO MODEL TEST_TRANS       PACKAGE CHD              ON UNIT   1016 AT TIME STEP      9, STRESS PERIOD     46

 HEAD WILL BE SAVED ON UNIT 1017 AT END OF TIME STEP    9, STRESS PERIOD   46
 UBDSV1 SAVING           STO-SS ON UNIT   1016 AT TIME STEP     10, STRESS PERIOD     46
 UBDSV1 SAVING           STO-SY ON UNIT   1016 AT TIME STEP     10, STRESS PERIOD     46
 UBDSV1 SAVING     FLOW-JA-FACE ON UNIT   1016 AT TIME STEP     10, STRESS PERIOD     46
 UBDSV06 SAVING              RCH IN MODEL TEST_TRANS       PACKAGE TEST_TRANS      CONNECTED TO MODEL TEST_TRANS       PACKAGE RCHA             ON UNIT   1016 AT TIME STEP     10, STRESS PERIOD     46
 UBDSV06 SAVING              CHD IN MODEL TEST_TRANS       PACKAGE TEST_TRANS      CONNECTED TO MODEL TEST_TRANS       PACKAGE CHD              ON UNIT   1016 AT TIME STEP     10, STRESS PERIOD     46
1
  HEAD IN LAYER   1 AT END OF TIME STEP  10 IN STRESS PERIOD   46
  ---------------------------------------------------------------------------

            1           2           3           4           5           6           7           8           9          10
           11          12          13          14          15          16          17          18          19          20
           21          22          23          24          25          26          27          28          29          30
 ........................................................................................................................
   1    27.66       27.66       27.65       27.63       27.62       27.59       27.57       27.54       27.50       27.46    
        27.41       27.36       27.30       27.23       27.16       27.08       27.00       26.90       26.80       26.68    
        26.56       26.42       26.26       26.09       25.90       25.69       25.44       25.15       24.80       24.34    
   2    27.66       27.66       27.65       27.63       27.62       27.59       27.57       27.54       27.50       27.46    
        27.41       27.36       27.30       27.23       27.16       27.08       27.00       26.90       26.80       26.68    
        26.56       26.42       26.26       26.09       25.90       25.69       25.44       25.15       24.80       24.34    
   3    27.66       27.66       27.65       27.63       27.62       27.59       27.57       27.54       27.50       27.46    
        27.41       27.36       27.30       27.23       27.16       27.08       27.00       26.90       26.80       26.68    
        26.56       26.42       26.26       26.09       25.90       25.69       25.44       25.15       24.80       24.34    
   4    27.66       27.66       27.65       27.63       27.62       27.59       27.57       27.54       27.50       27.46    
        27.41       27.36       27.30       27.23       27.16       27.08       27.00       26.90       26.80       26.68    
        26.56       26.42       26.26       26.09       25.90       25.69       25.44       25.15       24.80       24.34    
   5    27.66       27.66       27.65       27.63       27.62       27.59       27.57       27.54       27.50       27.46    
        27.41       27.36       27.30       27.23       27.16       27.08       27.00       26.90       26.80       26.68    
        26.56       26.42       26.26       26.09       25.90       25.69       25.44       25.15       24.80       24.34    
   6    27.66       27.66       27.65       27.63       27.62       27.59       27.57       27.54       27.50       27.46    
        27.41       27.36       27.30       27.23       27.16       27.08       27.00       26.90       26.80       26.68    
        26.56       26.42       26.26       26.09       25.90       25.69       25.44       25.15       24.80       24.34    
   7    27.66       27.66       27.65       27.63       27.62       27.59       27.57       27.54       27.50       27.46    
        27.41       27.36       27.30       27.23       27.16       27.08       27.00       26.90       26.80       26.68    
        26.56       26.42       26.26       26.09       25.90       25.69       25.44       25.15       24.80       24.34    
   8    27.66       27.66       27.65       27.63       27.62       27.59       27.57       27.54       27.50       27.46    
        27.41       27.36       27.30       27.23       27.16       27.08       27.00       26.90       26.80       26.68    
        26.56       26.42       26.26       26.09       25.90       25.69       25.44       25.15       24.80       24.34    
   9    27.66       27.66       27.65       27.63       27.62       27.59       27.57       27.54       27.50       27.46    
        27.41       27.36       27.30       27.23       27.16       27.08       27.00       26.90       26.80       26.68    
        26.56       26.42       26.26       26.09       25.90       25.69       25.44       25.15       24.80       24.34    
  10    27.66       27.66       27.65       27.63       27.62       27.59       27.57       27.54       27.50       27.46    
        27.41       27.36       27.30       27.23       27.16       27.08       27.00       26.90       26.80       26.68    
        26.56       26.42       26.26       26.09       25.90       25.69       25.44       25.15       24.80       24.34    
  11    27.66       27.66       27.65       27.63       27.62       27.59       27.57       27.54       27.50       27.46    
        27.41       27.36       27.30       27.23       27.16       27.08       27.00       26.90       26.80       26.68    
        26.56       26.42       26.26       26.09       25.90       25.69       25.44       25.15       24.80       24.34    
  12    27.66       27.66       27.65       27.63       27.62       27.59       27.57       27.54       27.50       27.46    
        27.41       27.36       27.30       27.23       27.16       27.08       27.00       26.90       26.80       26.68    
        26.56       26.42       26.26       26.09       25.90       25.69       25.44       25.15       24.80       24.34    
  13    27.66       27.66       27.65       27.63       27.62       27.59       27.57       27.54       27.50       27.46    
        27.41       27.36       27.30       27.23       27.16       27.08       27.00       26.90       26.80       26.68    
        26.56       26.42       26.26       26.09       25.90       25.69       25.44       25.15       24.80       24.34    
  14    27.66       27.66       27.65       27.63       27.62       27.59       27.57       27.54       27.50       27.46    
        27.41       27.36       27.30       27.23       27.16       27.08       27.00       26.90       26.80       26.68    
        26.56       26.42       26.26       26.09       25.90       25.69       25.44       25.15       24.80       24.34    
  15    27.66       27.66       27.65       27.63       27.62       27.59       27.57       27.54       27.50       27.46    
        27.41       27.36       27.30       27.23       27.16       27.08       27.00       26.90       26.80       26.68    
        26.56       26.42       26.26       26.09       25.90       25.69       25.44       25.15       24.80       24.34    
  16    27.66       27.66       27.65       27.63       27.62       27.59       27.57       27.54       27.50       27.46    
        27.41       27.36       27.30       27.23       27.16       27.08       27.00       26.90       26.80       26.68    
        26.56       26.42       26.26       26.09       25.90       25.69       25.44       25.15       24.80       24.34    
  17    27.66       27.66       27.65       27.63       27.62       27.59       27.57       27.54       27.50       27.46    
        27.41       27.36       27.30       27.23       27.16       27.08       27.00       26.90       26.80       26.68    
        26.56       26.42       26.26       26.09       25.90       25.69       25.44       25.15       24.80       24.34    
  18    27.66       27.66       27.65       27.63       27.62       27.59       27.57       27.54       27.50       27.46    
        27.41       27.36       27.30       27.23       27.16       27.08       27.00       26.90       26.80       26.68    
        26.56       26.42       26.26       26.09       25.90       25.69       25.44       25.15       24.80       24.34    
  19    27.66       27.66       27.65       27.63       27.62       27.59       27.57       27.54       27.50       27.46    
        27.41       27.36       27.30       27.23       27.16       27.08       27.00       26.90       26.80       26.68    
        26.56       26.42       26.26       26.09       25.90       25.69       25.44       25.15       24.80       24.34    
  20    27.66       27.66       27.65       27.63       27.62       27.59       27.57       27.54       27.50       27.46    
        27.41       27.36       27.30       27.23       27.16       27.08       27.00       26.90       26.80       26.68    
        26.56       26.42       26.26       26.09       25.90       25.69       25.44       25.15       24.80       24.34    
  21    27.66       27.66       27.65       27.63       27.62       27.59       27.57       27.54       27.50       27.46    
        27.41       27.36       27.30       27.23       27.16       27.08       27.00       26.90       26.80       26.68    
        26.56       26.42       26.26       26.09       25.90       25.69       25.44       25.15       24.80       24.34    
  22    27.66       27.66       27.65       27.63       27.62       27.59       27.57       27.54       27.50       27.46    
        27.41       27.36       27.30       27.23       27.16       27.08       27.00       26.90       26.80       26.68    
        26.56       26.42       26.26       26.09       25.90       25.69       25.44       25.15       24.80       24.34    
  23    27.66       27.66       27.65       27.63       27.62       27.59       27.57       27.54       27.50       27.46    
        27.41       27.36       27.30       27.23       27.16       27.08       27.00       26.90       26.80       26.68    
        26.56       26.42       26.26       26.09       25.90       25.69       25.44       25.15       24.80       24.34    
  24    27.66       27.66       27.65       27.63       27.62       27.59       27.57       27.54       27.50       27.46    
        27.41       27.36       27.30       27.23       27.16       27.08       27.00       26.90       26.80       26.68    
        26.56       26.42       26.26       26.09       25.90       25.69       25.44       25.15       24.80       24.34    
  25    27.66       27.66       27.65       27.63       27.62       27.59       27.57       27.54       27.50       27.46    
        27.41       27.36       27.30       27.23       27.16       27.08       27.00       26.90       26.80       26.68    
        26.56       26.42       26.26       26.09       25.90       25.69       25.44       25.15       24.80       24.34    
  26    27.66       27.66       27.65       27.63       27.62       27.59       27.57       27.54       27.50       27.46    
        27.41       27.36       27.30       27.23       27.16       27.08       27.00       26.90       26.80       26.68    
        26.56       26.42       26.26       26.09       25.90       25.69       25.44       25.15       24.80       24.34    
  27    27.66       27.66       27.65       27.63       27.62       27.59       27.57       27.54       27.50       27.46    
        27.41       27.36       27.30       27.23       27.16       27.08       27.00       26.90       26.80       26.68    
        26.56       26.42       26.26       26.09       25.90       25.69       25.44       25.15       24.80       24.34    
  28    27.66       27.66       27.65       27.63       27.62       27.59       27.57       27.54       27.50       27.46    
        27.41       27.36       27.30       27.23       27.16       27.08       27.00       26.90       26.80       26.68    
        26.56       26.42       26.26       26.09       25.90       25.69       25.44       25.15       24.80       24.34    
  29    27.66       27.66       27.65       27.63       27.62       27.59       27.57       27.54       27.50       27.46    
        27.41       27.36       27.30       27.23       27.16       27.08       27.00       26.90       26.80       26.68    
        26.56       26.42       26.26       26.09       25.90       25.69       25.44       25.15       24.80       24.34    
  30    27.66       27.66       27.65       27.63       27.62       27.59       27.57       27.54       27.50       27.46    
        27.41       27.36       27.30       27.23       27.16       27.08       27.00       26.90       26.80       26.68    
        26.56       26.42       26.26       26.09       25.90       25.69       25.44       25.15       24.80       24.34    

 HEAD WILL BE SAVED ON UNIT 1017 AT END OF TIME STEP   10, STRESS PERIOD   46


  VOLUME BUDGET FOR ENTIRE MODEL AT END OF TIME STEP   10, STRESS PERIOD  46
  ---------------------------------------------------------------------------------------------------

     CUMULATIVE VOLUME      L**3       RATES FOR THIS TIME STEP      L**3/T          PACKAGE NAME    
     ------------------                 ------------------------                     ----------------

           IN:                                      IN:
           ---                                      ---
              STO-SS =          78.2022                STO-SS =       1.3546E-02     STORAGE         
              STO-SY =       50657.1887                STO-SY =           9.3729     STORAGE         
                 RCH =      218334.3467                   RCH =         190.6849     RCHA            
                 CHD =        4772.3889                   CHD =           0.0000     CHD             

            TOTAL IN =      273842.1265              TOTAL IN =         200.0713

          OUT:                                     OUT:
          ----                                     ----
              STO-SS =          62.7661                STO-SS =       2.3190E-02     STORAGE         
              STO-SY =       40982.3683                STO-SY =          14.4622     STORAGE         
                 RCH =           0.0000                   RCH =           0.0000     RCHA            
                 CHD =      232796.1037                   CHD =         185.5825     CHD             

           TOTAL OUT =      273841.2381             TOTAL OUT =         200.0679

            IN - OUT =           0.8884              IN - OUT =       3.4085E-03

 PERCENT DISCREPANCY =           0.00     PERCENT DISCREPANCY =           0.00




         TIME SUMMARY AT END OF TIME STEP   10 IN STRESS PERIOD   46
                    SECONDS     MINUTES      HOURS       DAYS        YEARS
                    -----------------------------------------------------------
   TIME STEP LENGTH 2.59200E+05  4320.0      72.000      3.0000     8.21355E-03
 STRESS PERIOD TIME 2.59200E+06  43200.      720.00      30.000     8.21355E-02
         TOTAL TIME 1.16726E+08 1.94544E+06  32424.      1351.0      3.6988    

 OUTPUT CONTROL FOR STRESS PERIOD 47 IS REPEATED USING SETTINGS FROM A PREVIOUS STRESS PERIOD.


 STRESS PERIOD 47 IS TRANSIENT


                 RECHARGE =  0.2465750E-02
 UBDSV1 SAVING           STO-SS ON UNIT   1016 AT TIME STEP      1, STRESS PERIOD     47
 UBDSV1 SAVING           STO-SY ON UNIT   1016 AT TIME STEP      1, STRESS PERIOD     47
 UBDSV1 SAVING     FLOW-JA-FACE ON UNIT   1016 AT TIME STEP      1, STRESS PERIOD     47
 UBDSV06 SAVING              RCH IN MODEL TEST_TRANS       PACKAGE TEST_TRANS      CONNECTED TO MODEL TEST_TRANS       PACKAGE RCHA             ON UNIT   1016 AT TIME STEP      1, STRESS PERIOD     47
 UBDSV06 SAVING              CHD IN MODEL TEST_TRANS       PACKAGE TEST_TRANS      CONNECTED TO MODEL TEST_TRANS       PACKAGE CHD              ON UNIT   1016 AT TIME STEP      1, STRESS PERIOD     47
1
  HEAD IN LAYER   1 AT END OF TIME STEP   1 IN STRESS PERIOD   47
  ---------------------------------------------------------------------------

            1           2           3           4           5           6           7           8           9          10
           11          12          13          14          15          16          17          18          19          20
           21          22          23          24          25          26          27          28          29          30
 ........................................................................................................................
   1    27.67       27.67       27.66       27.64       27.63       27.60       27.58       27.54       27.51       27.47    
        27.42       27.36       27.31       27.24       27.17       27.09       27.00       26.90       26.80       26.68    
        26.56       26.42       26.26       26.09       25.90       25.68       25.43       25.14       24.77       24.24    
   2    27.67       27.67       27.66       27.64       27.63       27.60       27.58       27.54       27.51       27.47    
        27.42       27.36       27.31       27.24       27.17       27.09       27.00       26.90       26.80       26.68    
        26.56       26.42       26.26       26.09       25.90       25.68       25.43       25.14       24.77       24.24    
   3    27.67       27.67       27.66       27.64       27.63       27.60       27.58       27.54       27.51       27.47    
        27.42       27.36       27.31       27.24       27.17       27.09       27.00       26.90       26.80       26.68    
        26.56       26.42       26.26       26.09       25.90       25.68       25.43       25.14       24.77       24.24    
   4    27.67       27.67       27.66       27.64       27.63       27.60       27.58       27.54       27.51       27.47    
        27.42       27.36       27.31       27.24       27.17       27.09       27.00       26.90       26.80       26.68    
        26.56       26.42       26.26       26.09       25.90       25.68       25.43       25.14       24.77       24.24    
   5    27.67       27.67       27.66       27.64       27.63       27.60       27.58       27.54       27.51       27.47    
        27.42       27.36       27.31       27.24       27.17       27.09       27.00       26.90       26.80       26.68    
        26.56       26.42       26.26       26.09       25.90       25.68       25.43       25.14       24.77       24.24    
   6    27.67       27.67       27.66       27.64       27.63       27.60       27.58       27.54       27.51       27.47    
        27.42       27.36       27.31       27.24       27.17       27.09       27.00       26.90       26.80       26.68    
        26.56       26.42       26.26       26.09       25.90       25.68       25.43       25.14       24.77       24.24    
   7    27.67       27.67       27.66       27.64       27.63       27.60       27.58       27.54       27.51       27.47    
        27.42       27.36       27.31       27.24       27.17       27.09       27.00       26.90       26.80       26.68    
        26.56       26.42       26.26       26.09       25.90       25.68       25.43       25.14       24.77       24.24    
   8    27.67       27.67       27.66       27.64       27.63       27.60       27.58       27.54       27.51       27.47    
        27.42       27.36       27.31       27.24       27.17       27.09       27.00       26.90       26.80       26.68    
        26.56       26.42       26.26       26.09       25.90       25.68       25.43       25.14       24.77       24.24    
   9    27.67       27.67       27.66       27.64       27.63       27.60       27.58       27.54       27.51       27.47    
        27.42       27.36       27.31       27.24       27.17       27.09       27.00       26.90       26.80       26.68    
        26.56       26.42       26.26       26.09       25.90       25.68       25.43       25.14       24.77       24.24    
  10    27.67       27.67       27.66       27.64       27.63       27.60       27.58       27.54       27.51       27.47    
        27.42       27.36       27.31       27.24       27.17       27.09       27.00       26.90       26.80       26.68    
        26.56       26.42       26.26       26.09       25.90       25.68       25.43       25.14       24.77       24.24    
  11    27.67       27.67       27.66       27.64       27.63       27.60       27.58       27.54       27.51       27.47    
        27.42       27.36       27.31       27.24       27.17       27.09       27.00       26.90       26.80       26.68    
        26.56       26.42       26.26       26.09       25.90       25.68       25.43       25.14       24.77       24.24    
  12    27.67       27.67       27.66       27.64       27.63       27.60       27.58       27.54       27.51       27.47    
        27.42       27.36       27.31       27.24       27.17       27.09       27.00       26.90       26.80       26.68    
        26.56       26.42       26.26       26.09       25.90       25.68       25.43       25.14       24.77       24.24    
  13    27.67       27.67       27.66       27.64       27.63       27.60       27.58       27.54       27.51       27.47    
        27.42       27.36       27.31       27.24       27.17       27.09       27.00       26.90       26.80       26.68    
        26.56       26.42       26.26       26.09       25.90       25.68       25.43       25.14       24.77       24.24    
  14    27.67       27.67       27.66       27.64       27.63       27.60       27.58       27.54       27.51       27.47    
        27.42       27.36       27.31       27.24       27.17       27.09       27.00       26.90       26.80       26.68    
        26.56       26.42       26.26       26.09       25.90       25.68       25.43       25.14       24.77       24.24    
  15    27.67       27.67       27.66       27.64       27.63       27.60       27.58       27.54       27.51       27.47    
        27.42       27.36       27.31       27.24       27.17       27.09       27.00       26.90       26.80       26.68    
        26.56       26.42       26.26       26.09       25.90       25.68       25.43       25.14       24.77       24.24    
  16    27.67       27.67       27.66       27.64       27.63       27.60       27.58       27.54       27.51       27.47    
        27.42       27.36       27.31       27.24       27.17       27.09       27.00       26.90       26.80       26.68    
        26.56       26.42       26.26       26.09       25.90       25.68       25.43       25.14       24.77       24.24    
  17    27.67       27.67       27.66       27.64       27.63       27.60       27.58       27.54       27.51       27.47    
        27.42       27.36       27.31       27.24       27.17       27.09       27.00       26.90       26.80       26.68    
        26.56       26.42       26.26       26.09       25.90       25.68       25.43       25.14       24.77       24.24    
  18    27.67       27.67       27.66       27.64       27.63       27.60       27.58       27.54       27.51       27.47    
        27.42       27.36       27.31       27.24       27.17       27.09       27.00       26.90       26.80       26.68    
        26.56       26.42       26.26       26.09       25.90       25.68       25.43       25.14       24.77       24.24    
  19    27.67       27.67       27.66       27.64       27.63       27.60       27.58       27.54       27.51       27.47    
        27.42       27.36       27.31       27.24       27.17       27.09       27.00       26.90       26.80       26.68    
        26.56       26.42       26.26       26.09       25.90       25.68       25.43       25.14       24.77       24.24    
  20    27.67       27.67       27.66       27.64       27.63       27.60       27.58       27.54       27.51       27.47    
        27.42       27.36       27.31       27.24       27.17       27.09       27.00       26.90       26.80       26.68    
        26.56       26.42       26.26       26.09       25.90       25.68       25.43       25.14       24.77       24.24    
  21    27.67       27.67       27.66       27.64       27.63       27.60       27.58       27.54       27.51       27.47    
        27.42       27.36       27.31       27.24       27.17       27.09       27.00       26.90       26.80       26.68    
        26.56       26.42       26.26       26.09       25.90       25.68       25.43       25.14       24.77       24.24    
  22    27.67       27.67       27.66       27.64       27.63       27.60       27.58       27.54       27.51       27.47    
        27.42       27.36       27.31       27.24       27.17       27.09       27.00       26.90       26.80       26.68    
        26.56       26.42       26.26       26.09       25.90       25.68       25.43       25.14       24.77       24.24    
  23    27.67       27.67       27.66       27.64       27.63       27.60       27.58       27.54       27.51       27.47    
        27.42       27.36       27.31       27.24       27.17       27.09       27.00       26.90       26.80       26.68    
        26.56       26.42       26.26       26.09       25.90       25.68       25.43       25.14       24.77       24.24    
  24    27.67       27.67       27.66       27.64       27.63       27.60       27.58       27.54       27.51       27.47    
        27.42       27.36       27.31       27.24       27.17       27.09       27.00       26.90       26.80       26.68    
        26.56       26.42       26.26       26.09       25.90       25.68       25.43       25.14       24.77       24.24    
  25    27.67       27.67       27.66       27.64       27.63       27.60       27.58       27.54       27.51       27.47    
        27.42       27.36       27.31       27.24       27.17       27.09       27.00       26.90       26.80       26.68    
        26.56       26.42       26.26       26.09       25.90       25.68       25.43       25.14       24.77       24.24    
  26    27.67       27.67       27.66       27.64       27.63       27.60       27.58       27.54       27.51       27.47    
        27.42       27.36       27.31       27.24       27.17       27.09       27.00       26.90       26.80       26.68    
        26.56       26.42       26.26       26.09       25.90       25.68       25.43       25.14       24.77       24.24    
  27    27.67       27.67       27.66       27.64       27.63       27.60       27.58       27.54       27.51       27.47    
        27.42       27.36       27.31       27.24       27.17       27.09       27.00       26.90       26.80       26.68    
        26.56       26.42       26.26       26.09       25.90       25.68       25.43       25.14       24.77       24.24    
  28    27.67       27.67       27.66       27.64       27.63       27.60       27.58       27.54       27.51       27.47    
        27.42       27.36       27.31       27.24       27.17       27.09       27.00       26.90       26.80       26.68    
        26.56       26.42       26.26       26.09       25.90       25.68       25.43       25.14       24.77       24.24    
  29    27.67       27.67       27.66       27.64       27.63       27.60       27.58       27.54       27.51       27.47    
        27.42       27.36       27.31       27.24       27.17       27.09       27.00       26.90       26.80       26.68    
        26.56       26.42       26.26       26.09       25.90       25.68       25.43       25.14       24.77       24.24    
  30    27.67       27.67       27.66       27.64       27.63       27.60       27.58       27.54       27.51       27.47    
        27.42       27.36       27.31       27.24       27.17       27.09       27.00       26.90       26.80       26.68    
        26.56       26.42       26.26       26.09       25.90       25.68       25.43       25.14       24.77       24.24    

 HEAD WILL BE SAVED ON UNIT 1017 AT END OF TIME STEP    1, STRESS PERIOD   47



         TIME SUMMARY AT END OF TIME STEP    1 IN STRESS PERIOD   47
                    SECONDS     MINUTES      HOURS       DAYS        YEARS
                    -----------------------------------------------------------
   TIME STEP LENGTH 2.59200E+05  4320.0      72.000      3.0000     8.21355E-03
 STRESS PERIOD TIME 2.59200E+05  4320.0      72.000      3.0000     8.21355E-03
         TOTAL TIME 1.16986E+08 1.94976E+06  32496.      1354.0      3.7070    
 UBDSV1 SAVING           STO-SS ON UNIT   1016 AT TIME STEP      2, STRESS PERIOD     47
 UBDSV1 SAVING           STO-SY ON UNIT   1016 AT TIME STEP      2, STRESS PERIOD     47
 UBDSV1 SAVING     FLOW-JA-FACE ON UNIT   1016 AT TIME STEP      2, STRESS PERIOD     47
 UBDSV06 SAVING              RCH IN MODEL TEST_TRANS       PACKAGE TEST_TRANS      CONNECTED TO MODEL TEST_TRANS       PACKAGE RCHA             ON UNIT   1016 AT TIME STEP      2, STRESS PERIOD     47
 UBDSV06 SAVING              CHD IN MODEL TEST_TRANS       PACKAGE TEST_TRANS      CONNECTED TO MODEL TEST_TRANS       PACKAGE CHD              ON UNIT   1016 AT TIME STEP      2, STRESS PERIOD     47

 HEAD WILL BE SAVED ON UNIT 1017 AT END OF TIME STEP    2, STRESS PERIOD   47
 UBDSV1 SAVING           STO-SS ON UNIT   1016 AT TIME STEP      3, STRESS PERIOD     47
 UBDSV1 SAVING           STO-SY ON UNIT   1016 AT TIME STEP      3, STRESS PERIOD     47
 UBDSV1 SAVING     FLOW-JA-FACE ON UNIT   1016 AT TIME STEP      3, STRESS PERIOD     47
 UBDSV06 SAVING              RCH IN MODEL TEST_TRANS       PACKAGE TEST_TRANS      CONNECTED TO MODEL TEST_TRANS       PACKAGE RCHA             ON UNIT   1016 AT TIME STEP      3, STRESS PERIOD     47
 UBDSV06 SAVING              CHD IN MODEL TEST_TRANS       PACKAGE TEST_TRANS      CONNECTED TO MODEL TEST_TRANS       PACKAGE CHD              ON UNIT   1016 AT TIME STEP      3, STRESS PERIOD     47

 HEAD WILL BE SAVED ON UNIT 1017 AT END OF TIME STEP    3, STRESS PERIOD   47
 UBDSV1 SAVING           STO-SS ON UNIT   1016 AT TIME STEP      4, STRESS PERIOD     47
 UBDSV1 SAVING           STO-SY ON UNIT   1016 AT TIME STEP      4, STRESS PERIOD     47
 UBDSV1 SAVING     FLOW-JA-FACE ON UNIT   1016 AT TIME STEP      4, STRESS PERIOD     47
 UBDSV06 SAVING              RCH IN MODEL TEST_TRANS       PACKAGE TEST_TRANS      CONNECTED TO MODEL TEST_TRANS       PACKAGE RCHA             ON UNIT   1016 AT TIME STEP      4, STRESS PERIOD     47
 UBDSV06 SAVING              CHD IN MODEL TEST_TRANS       PACKAGE TEST_TRANS      CONNECTED TO MODEL TEST_TRANS       PACKAGE CHD              ON UNIT   1016 AT TIME STEP      4, STRESS PERIOD     47

 HEAD WILL BE SAVED ON UNIT 1017 AT END OF TIME STEP    4, STRESS PERIOD   47
 UBDSV1 SAVING           STO-SS ON UNIT   1016 AT TIME STEP      5, STRESS PERIOD     47
 UBDSV1 SAVING           STO-SY ON UNIT   1016 AT TIME STEP      5, STRESS PERIOD     47
 UBDSV1 SAVING     FLOW-JA-FACE ON UNIT   1016 AT TIME STEP      5, STRESS PERIOD     47
 UBDSV06 SAVING              RCH IN MODEL TEST_TRANS       PACKAGE TEST_TRANS      CONNECTED TO MODEL TEST_TRANS       PACKAGE RCHA             ON UNIT   1016 AT TIME STEP      5, STRESS PERIOD     47
 UBDSV06 SAVING              CHD IN MODEL TEST_TRANS       PACKAGE TEST_TRANS      CONNECTED TO MODEL TEST_TRANS       PACKAGE CHD              ON UNIT   1016 AT TIME STEP      5, STRESS PERIOD     47

 HEAD WILL BE SAVED ON UNIT 1017 AT END OF TIME STEP    5, STRESS PERIOD   47
 UBDSV1 SAVING           STO-SS ON UNIT   1016 AT TIME STEP      6, STRESS PERIOD     47
 UBDSV1 SAVING           STO-SY ON UNIT   1016 AT TIME STEP      6, STRESS PERIOD     47
 UBDSV1 SAVING     FLOW-JA-FACE ON UNIT   1016 AT TIME STEP      6, STRESS PERIOD     47
 UBDSV06 SAVING              RCH IN MODEL TEST_TRANS       PACKAGE TEST_TRANS      CONNECTED TO MODEL TEST_TRANS       PACKAGE RCHA             ON UNIT   1016 AT TIME STEP      6, STRESS PERIOD     47
 UBDSV06 SAVING              CHD IN MODEL TEST_TRANS       PACKAGE TEST_TRANS      CONNECTED TO MODEL TEST_TRANS       PACKAGE CHD              ON UNIT   1016 AT TIME STEP      6, STRESS PERIOD     47

 HEAD WILL BE SAVED ON UNIT 1017 AT END OF TIME STEP    6, STRESS PERIOD   47
 UBDSV1 SAVING           STO-SS ON UNIT   1016 AT TIME STEP      7, STRESS PERIOD     47
 UBDSV1 SAVING           STO-SY ON UNIT   1016 AT TIME STEP      7, STRESS PERIOD     47
 UBDSV1 SAVING     FLOW-JA-FACE ON UNIT   1016 AT TIME STEP      7, STRESS PERIOD     47
 UBDSV06 SAVING              RCH IN MODEL TEST_TRANS       PACKAGE TEST_TRANS      CONNECTED TO MODEL TEST_TRANS       PACKAGE RCHA             ON UNIT   1016 AT TIME STEP      7, STRESS PERIOD     47
 UBDSV06 SAVING              CHD IN MODEL TEST_TRANS       PACKAGE TEST_TRANS      CONNECTED TO MODEL TEST_TRANS       PACKAGE CHD              ON UNIT   1016 AT TIME STEP      7, STRESS PERIOD     47

 HEAD WILL BE SAVED ON UNIT 1017 AT END OF TIME STEP    7, STRESS PERIOD   47
 UBDSV1 SAVING           STO-SS ON UNIT   1016 AT TIME STEP      8, STRESS PERIOD     47
 UBDSV1 SAVING           STO-SY ON UNIT   1016 AT TIME STEP      8, STRESS PERIOD     47
 UBDSV1 SAVING     FLOW-JA-FACE ON UNIT   1016 AT TIME STEP      8, STRESS PERIOD     47
 UBDSV06 SAVING              RCH IN MODEL TEST_TRANS       PACKAGE TEST_TRANS      CONNECTED TO MODEL TEST_TRANS       PACKAGE RCHA             ON UNIT   1016 AT TIME STEP      8, STRESS PERIOD     47
 UBDSV06 SAVING              CHD IN MODEL TEST_TRANS       PACKAGE TEST_TRANS      CONNECTED TO MODEL TEST_TRANS       PACKAGE CHD              ON UNIT   1016 AT TIME STEP      8, STRESS PERIOD     47

 HEAD WILL BE SAVED ON UNIT 1017 AT END OF TIME STEP    8, STRESS PERIOD   47
 UBDSV1 SAVING           STO-SS ON UNIT   1016 AT TIME STEP      9, STRESS PERIOD     47
 UBDSV1 SAVING           STO-SY ON UNIT   1016 AT TIME STEP      9, STRESS PERIOD     47
 UBDSV1 SAVING     FLOW-JA-FACE ON UNIT   1016 AT TIME STEP      9, STRESS PERIOD     47
 UBDSV06 SAVING              RCH IN MODEL TEST_TRANS       PACKAGE TEST_TRANS      CONNECTED TO MODEL TEST_TRANS       PACKAGE RCHA             ON UNIT   1016 AT TIME STEP      9, STRESS PERIOD     47
 UBDSV06 SAVING              CHD IN MODEL TEST_TRANS       PACKAGE TEST_TRANS      CONNECTED TO MODEL TEST_TRANS       PACKAGE CHD              ON UNIT   1016 AT TIME STEP      9, STRESS PERIOD     47

 HEAD WILL BE SAVED ON UNIT 1017 AT END OF TIME STEP    9, STRESS PERIOD   47
 UBDSV1 SAVING           STO-SS ON UNIT   1016 AT TIME STEP     10, STRESS PERIOD     47
 UBDSV1 SAVING           STO-SY ON UNIT   1016 AT TIME STEP     10, STRESS PERIOD     47
 UBDSV1 SAVING     FLOW-JA-FACE ON UNIT   1016 AT TIME STEP     10, STRESS PERIOD     47
 UBDSV06 SAVING              RCH IN MODEL TEST_TRANS       PACKAGE TEST_TRANS      CONNECTED TO MODEL TEST_TRANS       PACKAGE RCHA             ON UNIT   1016 AT TIME STEP     10, STRESS PERIOD     47
 UBDSV06 SAVING              CHD IN MODEL TEST_TRANS       PACKAGE TEST_TRANS      CONNECTED TO MODEL TEST_TRANS       PACKAGE CHD              ON UNIT   1016 AT TIME STEP     10, STRESS PERIOD     47
1
  HEAD IN LAYER   1 AT END OF TIME STEP  10 IN STRESS PERIOD   47
  ---------------------------------------------------------------------------

            1           2           3           4           5           6           7           8           9          10
           11          12          13          14          15          16          17          18          19          20
           21          22          23          24          25          26          27          28          29          30
 ........................................................................................................................
   1    27.75       27.75       27.74       27.72       27.70       27.68       27.65       27.61       27.57       27.53    
        27.48       27.42       27.36       27.29       27.21       27.13       27.03       26.93       26.82       26.70    
        26.57       26.43       26.27       26.09       25.89       25.67       25.41       25.11       24.75       24.24    
   2    27.75       27.75       27.74       27.72       27.70       27.68       27.65       27.61       27.57       27.53    
        27.48       27.42       27.36       27.29       27.21       27.13       27.03       26.93       26.82       26.70    
        26.57       26.43       26.27       26.09       25.89       25.67       25.41       25.11       24.75       24.24    
   3    27.75       27.75       27.74       27.72       27.70       27.68       27.65       27.61       27.57       27.53    
        27.48       27.42       27.36       27.29       27.21       27.13       27.03       26.93       26.82       26.70    
        26.57       26.43       26.27       26.09       25.89       25.67       25.41       25.11       24.75       24.24    
   4    27.75       27.75       27.74       27.72       27.70       27.68       27.65       27.61       27.57       27.53    
        27.48       27.42       27.36       27.29       27.21       27.13       27.03       26.93       26.82       26.70    
        26.57       26.43       26.27       26.09       25.89       25.67       25.41       25.11       24.75       24.24    
   5    27.75       27.75       27.74       27.72       27.70       27.68       27.65       27.61       27.57       27.53    
        27.48       27.42       27.36       27.29       27.21       27.13       27.03       26.93       26.82       26.70    
        26.57       26.43       26.27       26.09       25.89       25.67       25.41       25.11       24.75       24.24    
   6    27.75       27.75       27.74       27.72       27.70       27.68       27.65       27.61       27.57       27.53    
        27.48       27.42       27.36       27.29       27.21       27.13       27.03       26.93       26.82       26.70    
        26.57       26.43       26.27       26.09       25.89       25.67       25.41       25.11       24.75       24.24    
   7    27.75       27.75       27.74       27.72       27.70       27.68       27.65       27.61       27.57       27.53    
        27.48       27.42       27.36       27.29       27.21       27.13       27.03       26.93       26.82       26.70    
        26.57       26.43       26.27       26.09       25.89       25.67       25.41       25.11       24.75       24.24    
   8    27.75       27.75       27.74       27.72       27.70       27.68       27.65       27.61       27.57       27.53    
        27.48       27.42       27.36       27.29       27.21       27.13       27.03       26.93       26.82       26.70    
        26.57       26.43       26.27       26.09       25.89       25.67       25.41       25.11       24.75       24.24    
   9    27.75       27.75       27.74       27.72       27.70       27.68       27.65       27.61       27.57       27.53    
        27.48       27.42       27.36       27.29       27.21       27.13       27.03       26.93       26.82       26.70    
        26.57       26.43       26.27       26.09       25.89       25.67       25.41       25.11       24.75       24.24    
  10    27.75       27.75       27.74       27.72       27.70       27.68       27.65       27.61       27.57       27.53    
        27.48       27.42       27.36       27.29       27.21       27.13       27.03       26.93       26.82       26.70    
        26.57       26.43       26.27       26.09       25.89       25.67       25.41       25.11       24.75       24.24    
  11    27.75       27.75       27.74       27.72       27.70       27.68       27.65       27.61       27.57       27.53    
        27.48       27.42       27.36       27.29       27.21       27.13       27.03       26.93       26.82       26.70    
        26.57       26.43       26.27       26.09       25.89       25.67       25.41       25.11       24.75       24.24    
  12    27.75       27.75       27.74       27.72       27.70       27.68       27.65       27.61       27.57       27.53    
        27.48       27.42       27.36       27.29       27.21       27.13       27.03       26.93       26.82       26.70    
        26.57       26.43       26.27       26.09       25.89       25.67       25.41       25.11       24.75       24.24    
  13    27.75       27.75       27.74       27.72       27.70       27.68       27.65       27.61       27.57       27.53    
        27.48       27.42       27.36       27.29       27.21       27.13       27.03       26.93       26.82       26.70    
        26.57       26.43       26.27       26.09       25.89       25.67       25.41       25.11       24.75       24.24    
  14    27.75       27.75       27.74       27.72       27.70       27.68       27.65       27.61       27.57       27.53    
        27.48       27.42       27.36       27.29       27.21       27.13       27.03       26.93       26.82       26.70    
        26.57       26.43       26.27       26.09       25.89       25.67       25.41       25.11       24.75       24.24    
  15    27.75       27.75       27.74       27.72       27.70       27.68       27.65       27.61       27.57       27.53    
        27.48       27.42       27.36       27.29       27.21       27.13       27.03       26.93       26.82       26.70    
        26.57       26.43       26.27       26.09       25.89       25.67       25.41       25.11       24.75       24.24    
  16    27.75       27.75       27.74       27.72       27.70       27.68       27.65       27.61       27.57       27.53    
        27.48       27.42       27.36       27.29       27.21       27.13       27.03       26.93       26.82       26.70    
        26.57       26.43       26.27       26.09       25.89       25.67       25.41       25.11       24.75       24.24    
  17    27.75       27.75       27.74       27.72       27.70       27.68       27.65       27.61       27.57       27.53    
        27.48       27.42       27.36       27.29       27.21       27.13       27.03       26.93       26.82       26.70    
        26.57       26.43       26.27       26.09       25.89       25.67       25.41       25.11       24.75       24.24    
  18    27.75       27.75       27.74       27.72       27.70       27.68       27.65       27.61       27.57       27.53    
        27.48       27.42       27.36       27.29       27.21       27.13       27.03       26.93       26.82       26.70    
        26.57       26.43       26.27       26.09       25.89       25.67       25.41       25.11       24.75       24.24    
  19    27.75       27.75       27.74       27.72       27.70       27.68       27.65       27.61       27.57       27.53    
        27.48       27.42       27.36       27.29       27.21       27.13       27.03       26.93       26.82       26.70    
        26.57       26.43       26.27       26.09       25.89       25.67       25.41       25.11       24.75       24.24    
  20    27.75       27.75       27.74       27.72       27.70       27.68       27.65       27.61       27.57       27.53    
        27.48       27.42       27.36       27.29       27.21       27.13       27.03       26.93       26.82       26.70    
        26.57       26.43       26.27       26.09       25.89       25.67       25.41       25.11       24.75       24.24    
  21    27.75       27.75       27.74       27.72       27.70       27.68       27.65       27.61       27.57       27.53    
        27.48       27.42       27.36       27.29       27.21       27.13       27.03       26.93       26.82       26.70    
        26.57       26.43       26.27       26.09       25.89       25.67       25.41       25.11       24.75       24.24    
  22    27.75       27.75       27.74       27.72       27.70       27.68       27.65       27.61       27.57       27.53    
        27.48       27.42       27.36       27.29       27.21       27.13       27.03       26.93       26.82       26.70    
        26.57       26.43       26.27       26.09       25.89       25.67       25.41       25.11       24.75       24.24    
  23    27.75       27.75       27.74       27.72       27.70       27.68       27.65       27.61       27.57       27.53    
        27.48       27.42       27.36       27.29       27.21       27.13       27.03       26.93       26.82       26.70    
        26.57       26.43       26.27       26.09       25.89       25.67       25.41       25.11       24.75       24.24    
  24    27.75       27.75       27.74       27.72       27.70       27.68       27.65       27.61       27.57       27.53    
        27.48       27.42       27.36       27.29       27.21       27.13       27.03       26.93       26.82       26.70    
        26.57       26.43       26.27       26.09       25.89       25.67       25.41       25.11       24.75       24.24    
  25    27.75       27.75       27.74       27.72       27.70       27.68       27.65       27.61       27.57       27.53    
        27.48       27.42       27.36       27.29       27.21       27.13       27.03       26.93       26.82       26.70    
        26.57       26.43       26.27       26.09       25.89       25.67       25.41       25.11       24.75       24.24    
  26    27.75       27.75       27.74       27.72       27.70       27.68       27.65       27.61       27.57       27.53    
        27.48       27.42       27.36       27.29       27.21       27.13       27.03       26.93       26.82       26.70    
        26.57       26.43       26.27       26.09       25.89       25.67       25.41       25.11       24.75       24.24    
  27    27.75       27.75       27.74       27.72       27.70       27.68       27.65       27.61       27.57       27.53    
        27.48       27.42       27.36       27.29       27.21       27.13       27.03       26.93       26.82       26.70    
        26.57       26.43       26.27       26.09       25.89       25.67       25.41       25.11       24.75       24.24    
  28    27.75       27.75       27.74       27.72       27.70       27.68       27.65       27.61       27.57       27.53    
        27.48       27.42       27.36       27.29       27.21       27.13       27.03       26.93       26.82       26.70    
        26.57       26.43       26.27       26.09       25.89       25.67       25.41       25.11       24.75       24.24    
  29    27.75       27.75       27.74       27.72       27.70       27.68       27.65       27.61       27.57       27.53    
        27.48       27.42       27.36       27.29       27.21       27.13       27.03       26.93       26.82       26.70    
        26.57       26.43       26.27       26.09       25.89       25.67       25.41       25.11       24.75       24.24    
  30    27.75       27.75       27.74       27.72       27.70       27.68       27.65       27.61       27.57       27.53    
        27.48       27.42       27.36       27.29       27.21       27.13       27.03       26.93       26.82       26.70    
        26.57       26.43       26.27       26.09       25.89       25.67       25.41       25.11       24.75       24.24    

 HEAD WILL BE SAVED ON UNIT 1017 AT END OF TIME STEP   10, STRESS PERIOD   47


  VOLUME BUDGET FOR ENTIRE MODEL AT END OF TIME STEP   10, STRESS PERIOD  47
  ---------------------------------------------------------------------------------------------------

     CUMULATIVE VOLUME      L**3       RATES FOR THIS TIME STEP      L**3/T          PACKAGE NAME    
     ------------------                 ------------------------                     ----------------

           IN:                                      IN:
           ---                                      ---
              STO-SS =          78.3428                STO-SS =           0.0000     STORAGE         
              STO-SY =       50759.3682                STO-SY =           0.0000     STORAGE         
                 RCH =      224769.9542                   RCH =         214.5203     RCHA            
                 CHD =        4772.3889                   CHD =           0.0000     CHD             

            TOTAL IN =      280380.0541              TOTAL IN =         214.5203

          OUT:                                     OUT:
          ----                                     ----
              STO-SS =          64.0324                STO-SS =       3.9753E-02     STORAGE         
              STO-SY =       41776.2841                STO-SY =          24.9988     STORAGE         
                 RCH =           0.0000                   RCH =           0.0000     RCHA            
                 CHD =      238538.9114                   CHD =         189.4912     CHD             

           TOTAL OUT =      280379.2279             TOTAL OUT =         214.5298

            IN - OUT =           0.8262              IN - OUT =      -9.5918E-03

 PERCENT DISCREPANCY =           0.00     PERCENT DISCREPANCY =          -0.00




         TIME SUMMARY AT END OF TIME STEP   10 IN STRESS PERIOD   47
                    SECONDS     MINUTES      HOURS       DAYS        YEARS
                    -----------------------------------------------------------
   TIME STEP LENGTH 2.59200E+05  4320.0      72.000      3.0000     8.21355E-03
 STRESS PERIOD TIME 2.59200E+06  43200.      720.00      30.000     8.21355E-02
         TOTAL TIME 1.19318E+08 1.98864E+06  33144.      1381.0      3.7810    

 OUTPUT CONTROL FOR STRESS PERIOD 48 IS REPEATED USING SETTINGS FROM A PREVIOUS STRESS PERIOD.


 STRESS PERIOD 48 IS TRANSIENT


                 RECHARGE =  0.2739730E-02
 UBDSV1 SAVING           STO-SS ON UNIT   1016 AT TIME STEP      1, STRESS PERIOD     48
 UBDSV1 SAVING           STO-SY ON UNIT   1016 AT TIME STEP      1, STRESS PERIOD     48
 UBDSV1 SAVING     FLOW-JA-FACE ON UNIT   1016 AT TIME STEP      1, STRESS PERIOD     48
 UBDSV06 SAVING              RCH IN MODEL TEST_TRANS       PACKAGE TEST_TRANS      CONNECTED TO MODEL TEST_TRANS       PACKAGE RCHA             ON UNIT   1016 AT TIME STEP      1, STRESS PERIOD     48
 UBDSV06 SAVING              CHD IN MODEL TEST_TRANS       PACKAGE TEST_TRANS      CONNECTED TO MODEL TEST_TRANS       PACKAGE CHD              ON UNIT   1016 AT TIME STEP      1, STRESS PERIOD     48
1
  HEAD IN LAYER   1 AT END OF TIME STEP   1 IN STRESS PERIOD   48
  ---------------------------------------------------------------------------

            1           2           3           4           5           6           7           8           9          10
           11          12          13          14          15          16          17          18          19          20
           21          22          23          24          25          26          27          28          29          30
 ........................................................................................................................
   1    27.76       27.76       27.75       27.73       27.71       27.69       27.66       27.63       27.59       27.54    
        27.49       27.43       27.37       27.30       27.22       27.14       27.04       26.94       26.83       26.71    
        26.58       26.43       26.27       26.09       25.89       25.67       25.40       25.09       24.69       24.06    
   2    27.76       27.76       27.75       27.73       27.71       27.69       27.66       27.63       27.59       27.54    
        27.49       27.43       27.37       27.30       27.22       27.14       27.04       26.94       26.83       26.71    
        26.58       26.43       26.27       26.09       25.89       25.67       25.40       25.09       24.69       24.06    
   3    27.76       27.76       27.75       27.73       27.71       27.69       27.66       27.63       27.59       27.54    
        27.49       27.43       27.37       27.30       27.22       27.14       27.04       26.94       26.83       26.71    
        26.58       26.43       26.27       26.09       25.89       25.67       25.40       25.09       24.69       24.06    
   4    27.76       27.76       27.75       27.73       27.71       27.69       27.66       27.63       27.59       27.54    
        27.49       27.43       27.37       27.30       27.22       27.14       27.04       26.94       26.83       26.71    
        26.58       26.43       26.27       26.09       25.89       25.67       25.40       25.09       24.69       24.06    
   5    27.76       27.76       27.75       27.73       27.71       27.69       27.66       27.63       27.59       27.54    
        27.49       27.43       27.37       27.30       27.22       27.14       27.04       26.94       26.83       26.71    
        26.58       26.43       26.27       26.09       25.89       25.67       25.40       25.09       24.69       24.06    
   6    27.76       27.76       27.75       27.73       27.71       27.69       27.66       27.63       27.59       27.54    
        27.49       27.43       27.37       27.30       27.22       27.14       27.04       26.94       26.83       26.71    
        26.58       26.43       26.27       26.09       25.89       25.67       25.40       25.09       24.69       24.06    
   7    27.76       27.76       27.75       27.73       27.71       27.69       27.66       27.63       27.59       27.54    
        27.49       27.43       27.37       27.30       27.22       27.14       27.04       26.94       26.83       26.71    
        26.58       26.43       26.27       26.09       25.89       25.67       25.40       25.09       24.69       24.06    
   8    27.76       27.76       27.75       27.73       27.71       27.69       27.66       27.63       27.59       27.54    
        27.49       27.43       27.37       27.30       27.22       27.14       27.04       26.94       26.83       26.71    
        26.58       26.43       26.27       26.09       25.89       25.67       25.40       25.09       24.69       24.06    
   9    27.76       27.76       27.75       27.73       27.71       27.69       27.66       27.63       27.59       27.54    
        27.49       27.43       27.37       27.30       27.22       27.14       27.04       26.94       26.83       26.71    
        26.58       26.43       26.27       26.09       25.89       25.67       25.40       25.09       24.69       24.06    
  10    27.76       27.76       27.75       27.73       27.71       27.69       27.66       27.63       27.59       27.54    
        27.49       27.43       27.37       27.30       27.22       27.14       27.04       26.94       26.83       26.71    
        26.58       26.43       26.27       26.09       25.89       25.67       25.40       25.09       24.69       24.06    
  11    27.76       27.76       27.75       27.73       27.71       27.69       27.66       27.63       27.59       27.54    
        27.49       27.43       27.37       27.30       27.22       27.14       27.04       26.94       26.83       26.71    
        26.58       26.43       26.27       26.09       25.89       25.67       25.40       25.09       24.69       24.06    
  12    27.76       27.76       27.75       27.73       27.71       27.69       27.66       27.63       27.59       27.54    
        27.49       27.43       27.37       27.30       27.22       27.14       27.04       26.94       26.83       26.71    
        26.58       26.43       26.27       26.09       25.89       25.67       25.40       25.09       24.69       24.06    
  13    27.76       27.76       27.75       27.73       27.71       27.69       27.66       27.63       27.59       27.54    
        27.49       27.43       27.37       27.30       27.22       27.14       27.04       26.94       26.83       26.71    
        26.58       26.43       26.27       26.09       25.89       25.67       25.40       25.09       24.69       24.06    
  14    27.76       27.76       27.75       27.73       27.71       27.69       27.66       27.63       27.59       27.54    
        27.49       27.43       27.37       27.30       27.22       27.14       27.04       26.94       26.83       26.71    
        26.58       26.43       26.27       26.09       25.89       25.67       25.40       25.09       24.69       24.06    
  15    27.76       27.76       27.75       27.73       27.71       27.69       27.66       27.63       27.59       27.54    
        27.49       27.43       27.37       27.30       27.22       27.14       27.04       26.94       26.83       26.71    
        26.58       26.43       26.27       26.09       25.89       25.67       25.40       25.09       24.69       24.06    
  16    27.76       27.76       27.75       27.73       27.71       27.69       27.66       27.63       27.59       27.54    
        27.49       27.43       27.37       27.30       27.22       27.14       27.04       26.94       26.83       26.71    
        26.58       26.43       26.27       26.09       25.89       25.67       25.40       25.09       24.69       24.06    
  17    27.76       27.76       27.75       27.73       27.71       27.69       27.66       27.63       27.59       27.54    
        27.49       27.43       27.37       27.30       27.22       27.14       27.04       26.94       26.83       26.71    
        26.58       26.43       26.27       26.09       25.89       25.67       25.40       25.09       24.69       24.06    
  18    27.76       27.76       27.75       27.73       27.71       27.69       27.66       27.63       27.59       27.54    
        27.49       27.43       27.37       27.30       27.22       27.14       27.04       26.94       26.83       26.71    
        26.58       26.43       26.27       26.09       25.89       25.67       25.40       25.09       24.69       24.06    
  19    27.76       27.76       27.75       27.73       27.71       27.69       27.66       27.63       27.59       27.54    
        27.49       27.43       27.37       27.30       27.22       27.14       27.04       26.94       26.83       26.71    
        26.58       26.43       26.27       26.09       25.89       25.67       25.40       25.09       24.69       24.06    
  20    27.76       27.76       27.75       27.73       27.71       27.69       27.66       27.63       27.59       27.54    
        27.49       27.43       27.37       27.30       27.22       27.14       27.04       26.94       26.83       26.71    
        26.58       26.43       26.27       26.09       25.89       25.67       25.40       25.09       24.69       24.06    
  21    27.76       27.76       27.75       27.73       27.71       27.69       27.66       27.63       27.59       27.54    
        27.49       27.43       27.37       27.30       27.22       27.14       27.04       26.94       26.83       26.71    
        26.58       26.43       26.27       26.09       25.89       25.67       25.40       25.09       24.69       24.06    
  22    27.76       27.76       27.75       27.73       27.71       27.69       27.66       27.63       27.59       27.54    
        27.49       27.43       27.37       27.30       27.22       27.14       27.04       26.94       26.83       26.71    
        26.58       26.43       26.27       26.09       25.89       25.67       25.40       25.09       24.69       24.06    
  23    27.76       27.76       27.75       27.73       27.71       27.69       27.66       27.63       27.59       27.54    
        27.49       27.43       27.37       27.30       27.22       27.14       27.04       26.94       26.83       26.71    
        26.58       26.43       26.27       26.09       25.89       25.67       25.40       25.09       24.69       24.06    
  24    27.76       27.76       27.75       27.73       27.71       27.69       27.66       27.63       27.59       27.54    
        27.49       27.43       27.37       27.30       27.22       27.14       27.04       26.94       26.83       26.71    
        26.58       26.43       26.27       26.09       25.89       25.67       25.40       25.09       24.69       24.06    
  25    27.76       27.76       27.75       27.73       27.71       27.69       27.66       27.63       27.59       27.54    
        27.49       27.43       27.37       27.30       27.22       27.14       27.04       26.94       26.83       26.71    
        26.58       26.43       26.27       26.09       25.89       25.67       25.40       25.09       24.69       24.06    
  26    27.76       27.76       27.75       27.73       27.71       27.69       27.66       27.63       27.59       27.54    
        27.49       27.43       27.37       27.30       27.22       27.14       27.04       26.94       26.83       26.71    
        26.58       26.43       26.27       26.09       25.89       25.67       25.40       25.09       24.69       24.06    
  27    27.76       27.76       27.75       27.73       27.71       27.69       27.66       27.63       27.59       27.54    
        27.49       27.43       27.37       27.30       27.22       27.14       27.04       26.94       26.83       26.71    
        26.58       26.43       26.27       26.09       25.89       25.67       25.40       25.09       24.69       24.06    
  28    27.76       27.76       27.75       27.73       27.71       27.69       27.66       27.63       27.59       27.54    
        27.49       27.43       27.37       27.30       27.22       27.14       27.04       26.94       26.83       26.71    
        26.58       26.43       26.27       26.09       25.89       25.67       25.40       25.09       24.69       24.06    
  29    27.76       27.76       27.75       27.73       27.71       27.69       27.66       27.63       27.59       27.54    
        27.49       27.43       27.37       27.30       27.22       27.14       27.04       26.94       26.83       26.71    
        26.58       26.43       26.27       26.09       25.89       25.67       25.40       25.09       24.69       24.06    
  30    27.76       27.76       27.75       27.73       27.71       27.69       27.66       27.63       27.59       27.54    
        27.49       27.43       27.37       27.30       27.22       27.14       27.04       26.94       26.83       26.71    
        26.58       26.43       26.27       26.09       25.89       25.67       25.40       25.09       24.69       24.06    

 HEAD WILL BE SAVED ON UNIT 1017 AT END OF TIME STEP    1, STRESS PERIOD   48



         TIME SUMMARY AT END OF TIME STEP    1 IN STRESS PERIOD   48
                    SECONDS     MINUTES      HOURS       DAYS        YEARS
                    -----------------------------------------------------------
   TIME STEP LENGTH 2.59200E+05  4320.0      72.000      3.0000     8.21355E-03
 STRESS PERIOD TIME 2.59200E+05  4320.0      72.000      3.0000     8.21355E-03
         TOTAL TIME 1.19578E+08 1.99296E+06  33216.      1384.0      3.7892    
 UBDSV1 SAVING           STO-SS ON UNIT   1016 AT TIME STEP      2, STRESS PERIOD     48
 UBDSV1 SAVING           STO-SY ON UNIT   1016 AT TIME STEP      2, STRESS PERIOD     48
 UBDSV1 SAVING     FLOW-JA-FACE ON UNIT   1016 AT TIME STEP      2, STRESS PERIOD     48
 UBDSV06 SAVING              RCH IN MODEL TEST_TRANS       PACKAGE TEST_TRANS      CONNECTED TO MODEL TEST_TRANS       PACKAGE RCHA             ON UNIT   1016 AT TIME STEP      2, STRESS PERIOD     48
 UBDSV06 SAVING              CHD IN MODEL TEST_TRANS       PACKAGE TEST_TRANS      CONNECTED TO MODEL TEST_TRANS       PACKAGE CHD              ON UNIT   1016 AT TIME STEP      2, STRESS PERIOD     48

 HEAD WILL BE SAVED ON UNIT 1017 AT END OF TIME STEP    2, STRESS PERIOD   48
 UBDSV1 SAVING           STO-SS ON UNIT   1016 AT TIME STEP      3, STRESS PERIOD     48
 UBDSV1 SAVING           STO-SY ON UNIT   1016 AT TIME STEP      3, STRESS PERIOD     48
 UBDSV1 SAVING     FLOW-JA-FACE ON UNIT   1016 AT TIME STEP      3, STRESS PERIOD     48
 UBDSV06 SAVING              RCH IN MODEL TEST_TRANS       PACKAGE TEST_TRANS      CONNECTED TO MODEL TEST_TRANS       PACKAGE RCHA             ON UNIT   1016 AT TIME STEP      3, STRESS PERIOD     48
 UBDSV06 SAVING              CHD IN MODEL TEST_TRANS       PACKAGE TEST_TRANS      CONNECTED TO MODEL TEST_TRANS       PACKAGE CHD              ON UNIT   1016 AT TIME STEP      3, STRESS PERIOD     48

 HEAD WILL BE SAVED ON UNIT 1017 AT END OF TIME STEP    3, STRESS PERIOD   48
 UBDSV1 SAVING           STO-SS ON UNIT   1016 AT TIME STEP      4, STRESS PERIOD     48
 UBDSV1 SAVING           STO-SY ON UNIT   1016 AT TIME STEP      4, STRESS PERIOD     48
 UBDSV1 SAVING     FLOW-JA-FACE ON UNIT   1016 AT TIME STEP      4, STRESS PERIOD     48
 UBDSV06 SAVING              RCH IN MODEL TEST_TRANS       PACKAGE TEST_TRANS      CONNECTED TO MODEL TEST_TRANS       PACKAGE RCHA             ON UNIT   1016 AT TIME STEP      4, STRESS PERIOD     48
 UBDSV06 SAVING              CHD IN MODEL TEST_TRANS       PACKAGE TEST_TRANS      CONNECTED TO MODEL TEST_TRANS       PACKAGE CHD              ON UNIT   1016 AT TIME STEP      4, STRESS PERIOD     48

 HEAD WILL BE SAVED ON UNIT 1017 AT END OF TIME STEP    4, STRESS PERIOD   48
 UBDSV1 SAVING           STO-SS ON UNIT   1016 AT TIME STEP      5, STRESS PERIOD     48
 UBDSV1 SAVING           STO-SY ON UNIT   1016 AT TIME STEP      5, STRESS PERIOD     48
 UBDSV1 SAVING     FLOW-JA-FACE ON UNIT   1016 AT TIME STEP      5, STRESS PERIOD     48
 UBDSV06 SAVING              RCH IN MODEL TEST_TRANS       PACKAGE TEST_TRANS      CONNECTED TO MODEL TEST_TRANS       PACKAGE RCHA             ON UNIT   1016 AT TIME STEP      5, STRESS PERIOD     48
 UBDSV06 SAVING              CHD IN MODEL TEST_TRANS       PACKAGE TEST_TRANS      CONNECTED TO MODEL TEST_TRANS       PACKAGE CHD              ON UNIT   1016 AT TIME STEP      5, STRESS PERIOD     48

 HEAD WILL BE SAVED ON UNIT 1017 AT END OF TIME STEP    5, STRESS PERIOD   48
 UBDSV1 SAVING           STO-SS ON UNIT   1016 AT TIME STEP      6, STRESS PERIOD     48
 UBDSV1 SAVING           STO-SY ON UNIT   1016 AT TIME STEP      6, STRESS PERIOD     48
 UBDSV1 SAVING     FLOW-JA-FACE ON UNIT   1016 AT TIME STEP      6, STRESS PERIOD     48
 UBDSV06 SAVING              RCH IN MODEL TEST_TRANS       PACKAGE TEST_TRANS      CONNECTED TO MODEL TEST_TRANS       PACKAGE RCHA             ON UNIT   1016 AT TIME STEP      6, STRESS PERIOD     48
 UBDSV06 SAVING              CHD IN MODEL TEST_TRANS       PACKAGE TEST_TRANS      CONNECTED TO MODEL TEST_TRANS       PACKAGE CHD              ON UNIT   1016 AT TIME STEP      6, STRESS PERIOD     48

 HEAD WILL BE SAVED ON UNIT 1017 AT END OF TIME STEP    6, STRESS PERIOD   48
 UBDSV1 SAVING           STO-SS ON UNIT   1016 AT TIME STEP      7, STRESS PERIOD     48
 UBDSV1 SAVING           STO-SY ON UNIT   1016 AT TIME STEP      7, STRESS PERIOD     48
 UBDSV1 SAVING     FLOW-JA-FACE ON UNIT   1016 AT TIME STEP      7, STRESS PERIOD     48
 UBDSV06 SAVING              RCH IN MODEL TEST_TRANS       PACKAGE TEST_TRANS      CONNECTED TO MODEL TEST_TRANS       PACKAGE RCHA             ON UNIT   1016 AT TIME STEP      7, STRESS PERIOD     48
 UBDSV06 SAVING              CHD IN MODEL TEST_TRANS       PACKAGE TEST_TRANS      CONNECTED TO MODEL TEST_TRANS       PACKAGE CHD              ON UNIT   1016 AT TIME STEP      7, STRESS PERIOD     48

 HEAD WILL BE SAVED ON UNIT 1017 AT END OF TIME STEP    7, STRESS PERIOD   48
 UBDSV1 SAVING           STO-SS ON UNIT   1016 AT TIME STEP      8, STRESS PERIOD     48
 UBDSV1 SAVING           STO-SY ON UNIT   1016 AT TIME STEP      8, STRESS PERIOD     48
 UBDSV1 SAVING     FLOW-JA-FACE ON UNIT   1016 AT TIME STEP      8, STRESS PERIOD     48
 UBDSV06 SAVING              RCH IN MODEL TEST_TRANS       PACKAGE TEST_TRANS      CONNECTED TO MODEL TEST_TRANS       PACKAGE RCHA             ON UNIT   1016 AT TIME STEP      8, STRESS PERIOD     48
 UBDSV06 SAVING              CHD IN MODEL TEST_TRANS       PACKAGE TEST_TRANS      CONNECTED TO MODEL TEST_TRANS       PACKAGE CHD              ON UNIT   1016 AT TIME STEP      8, STRESS PERIOD     48

 HEAD WILL BE SAVED ON UNIT 1017 AT END OF TIME STEP    8, STRESS PERIOD   48
 UBDSV1 SAVING           STO-SS ON UNIT   1016 AT TIME STEP      9, STRESS PERIOD     48
 UBDSV1 SAVING           STO-SY ON UNIT   1016 AT TIME STEP      9, STRESS PERIOD     48
 UBDSV1 SAVING     FLOW-JA-FACE ON UNIT   1016 AT TIME STEP      9, STRESS PERIOD     48
 UBDSV06 SAVING              RCH IN MODEL TEST_TRANS       PACKAGE TEST_TRANS      CONNECTED TO MODEL TEST_TRANS       PACKAGE RCHA             ON UNIT   1016 AT TIME STEP      9, STRESS PERIOD     48
 UBDSV06 SAVING              CHD IN MODEL TEST_TRANS       PACKAGE TEST_TRANS      CONNECTED TO MODEL TEST_TRANS       PACKAGE CHD              ON UNIT   1016 AT TIME STEP      9, STRESS PERIOD     48

 HEAD WILL BE SAVED ON UNIT 1017 AT END OF TIME STEP    9, STRESS PERIOD   48
 UBDSV1 SAVING           STO-SS ON UNIT   1016 AT TIME STEP     10, STRESS PERIOD     48
 UBDSV1 SAVING           STO-SY ON UNIT   1016 AT TIME STEP     10, STRESS PERIOD     48
 UBDSV1 SAVING     FLOW-JA-FACE ON UNIT   1016 AT TIME STEP     10, STRESS PERIOD     48
 UBDSV06 SAVING              RCH IN MODEL TEST_TRANS       PACKAGE TEST_TRANS      CONNECTED TO MODEL TEST_TRANS       PACKAGE RCHA             ON UNIT   1016 AT TIME STEP     10, STRESS PERIOD     48
 UBDSV06 SAVING              CHD IN MODEL TEST_TRANS       PACKAGE TEST_TRANS      CONNECTED TO MODEL TEST_TRANS       PACKAGE CHD              ON UNIT   1016 AT TIME STEP     10, STRESS PERIOD     48
1
  HEAD IN LAYER   1 AT END OF TIME STEP  10 IN STRESS PERIOD   48
  ---------------------------------------------------------------------------

            1           2           3           4           5           6           7           8           9          10
           11          12          13          14          15          16          17          18          19          20
           21          22          23          24          25          26          27          28          29          30
 ........................................................................................................................
   1    27.86       27.85       27.84       27.83       27.80       27.78       27.75       27.71       27.67       27.62    
        27.57       27.51       27.44       27.37       27.29       27.20       27.10       27.00       26.88       26.76    
        26.62       26.46       26.30       26.11       25.90       25.66       25.39       25.07       24.66       24.06    
   2    27.86       27.85       27.84       27.83       27.80       27.78       27.75       27.71       27.67       27.62    
        27.57       27.51       27.44       27.37       27.29       27.20       27.10       27.00       26.88       26.76    
        26.62       26.46       26.30       26.11       25.90       25.66       25.39       25.07       24.66       24.06    
   3    27.86       27.85       27.84       27.83       27.80       27.78       27.75       27.71       27.67       27.62    
        27.57       27.51       27.44       27.37       27.29       27.20       27.10       27.00       26.88       26.76    
        26.62       26.46       26.30       26.11       25.90       25.66       25.39       25.07       24.66       24.06    
   4    27.86       27.85       27.84       27.83       27.80       27.78       27.75       27.71       27.67       27.62    
        27.57       27.51       27.44       27.37       27.29       27.20       27.10       27.00       26.88       26.76    
        26.62       26.46       26.30       26.11       25.90       25.66       25.39       25.07       24.66       24.06    
   5    27.86       27.85       27.84       27.83       27.80       27.78       27.75       27.71       27.67       27.62    
        27.57       27.51       27.44       27.37       27.29       27.20       27.10       27.00       26.88       26.76    
        26.62       26.46       26.30       26.11       25.90       25.66       25.39       25.07       24.66       24.06    
   6    27.86       27.85       27.84       27.83       27.80       27.78       27.75       27.71       27.67       27.62    
        27.57       27.51       27.44       27.37       27.29       27.20       27.10       27.00       26.88       26.76    
        26.62       26.46       26.30       26.11       25.90       25.66       25.39       25.07       24.66       24.06    
   7    27.86       27.85       27.84       27.83       27.80       27.78       27.75       27.71       27.67       27.62    
        27.57       27.51       27.44       27.37       27.29       27.20       27.10       27.00       26.88       26.76    
        26.62       26.46       26.30       26.11       25.90       25.66       25.39       25.07       24.66       24.06    
   8    27.86       27.85       27.84       27.83       27.80       27.78       27.75       27.71       27.67       27.62    
        27.57       27.51       27.44       27.37       27.29       27.20       27.10       27.00       26.88       26.76    
        26.62       26.46       26.30       26.11       25.90       25.66       25.39       25.07       24.66       24.06    
   9    27.86       27.85       27.84       27.83       27.80       27.78       27.75       27.71       27.67       27.62    
        27.57       27.51       27.44       27.37       27.29       27.20       27.10       27.00       26.88       26.76    
        26.62       26.46       26.30       26.11       25.90       25.66       25.39       25.07       24.66       24.06    
  10    27.86       27.85       27.84       27.83       27.80       27.78       27.75       27.71       27.67       27.62    
        27.57       27.51       27.44       27.37       27.29       27.20       27.10       27.00       26.88       26.76    
        26.62       26.46       26.30       26.11       25.90       25.66       25.39       25.07       24.66       24.06    
  11    27.86       27.85       27.84       27.83       27.80       27.78       27.75       27.71       27.67       27.62    
        27.57       27.51       27.44       27.37       27.29       27.20       27.10       27.00       26.88       26.76    
        26.62       26.46       26.30       26.11       25.90       25.66       25.39       25.07       24.66       24.06    
  12    27.86       27.85       27.84       27.83       27.80       27.78       27.75       27.71       27.67       27.62    
        27.57       27.51       27.44       27.37       27.29       27.20       27.10       27.00       26.88       26.76    
        26.62       26.46       26.30       26.11       25.90       25.66       25.39       25.07       24.66       24.06    
  13    27.86       27.85       27.84       27.83       27.80       27.78       27.75       27.71       27.67       27.62    
        27.57       27.51       27.44       27.37       27.29       27.20       27.10       27.00       26.88       26.76    
        26.62       26.46       26.30       26.11       25.90       25.66       25.39       25.07       24.66       24.06    
  14    27.86       27.85       27.84       27.83       27.80       27.78       27.75       27.71       27.67       27.62    
        27.57       27.51       27.44       27.37       27.29       27.20       27.10       27.00       26.88       26.76    
        26.62       26.46       26.30       26.11       25.90       25.66       25.39       25.07       24.66       24.06    
  15    27.86       27.85       27.84       27.83       27.80       27.78       27.75       27.71       27.67       27.62    
        27.57       27.51       27.44       27.37       27.29       27.20       27.10       27.00       26.88       26.76    
        26.62       26.46       26.30       26.11       25.90       25.66       25.39       25.07       24.66       24.06    
  16    27.86       27.85       27.84       27.83       27.80       27.78       27.75       27.71       27.67       27.62    
        27.57       27.51       27.44       27.37       27.29       27.20       27.10       27.00       26.88       26.76    
        26.62       26.46       26.30       26.11       25.90       25.66       25.39       25.07       24.66       24.06    
  17    27.86       27.85       27.84       27.83       27.80       27.78       27.75       27.71       27.67       27.62    
        27.57       27.51       27.44       27.37       27.29       27.20       27.10       27.00       26.88       26.76    
        26.62       26.46       26.30       26.11       25.90       25.66       25.39       25.07       24.66       24.06    
  18    27.86       27.85       27.84       27.83       27.80       27.78       27.75       27.71       27.67       27.62    
        27.57       27.51       27.44       27.37       27.29       27.20       27.10       27.00       26.88       26.76    
        26.62       26.46       26.30       26.11       25.90       25.66       25.39       25.07       24.66       24.06    
  19    27.86       27.85       27.84       27.83       27.80       27.78       27.75       27.71       27.67       27.62    
        27.57       27.51       27.44       27.37       27.29       27.20       27.10       27.00       26.88       26.76    
        26.62       26.46       26.30       26.11       25.90       25.66       25.39       25.07       24.66       24.06    
  20    27.86       27.85       27.84       27.83       27.80       27.78       27.75       27.71       27.67       27.62    
        27.57       27.51       27.44       27.37       27.29       27.20       27.10       27.00       26.88       26.76    
        26.62       26.46       26.30       26.11       25.90       25.66       25.39       25.07       24.66       24.06    
  21    27.86       27.85       27.84       27.83       27.80       27.78       27.75       27.71       27.67       27.62    
        27.57       27.51       27.44       27.37       27.29       27.20       27.10       27.00       26.88       26.76    
        26.62       26.46       26.30       26.11       25.90       25.66       25.39       25.07       24.66       24.06    
  22    27.86       27.85       27.84       27.83       27.80       27.78       27.75       27.71       27.67       27.62    
        27.57       27.51       27.44       27.37       27.29       27.20       27.10       27.00       26.88       26.76    
        26.62       26.46       26.30       26.11       25.90       25.66       25.39       25.07       24.66       24.06    
  23    27.86       27.85       27.84       27.83       27.80       27.78       27.75       27.71       27.67       27.62    
        27.57       27.51       27.44       27.37       27.29       27.20       27.10       27.00       26.88       26.76    
        26.62       26.46       26.30       26.11       25.90       25.66       25.39       25.07       24.66       24.06    
  24    27.86       27.85       27.84       27.83       27.80       27.78       27.75       27.71       27.67       27.62    
        27.57       27.51       27.44       27.37       27.29       27.20       27.10       27.00       26.88       26.76    
        26.62       26.46       26.30       26.11       25.90       25.66       25.39       25.07       24.66       24.06    
  25    27.86       27.85       27.84       27.83       27.80       27.78       27.75       27.71       27.67       27.62    
        27.57       27.51       27.44       27.37       27.29       27.20       27.10       27.00       26.88       26.76    
        26.62       26.46       26.30       26.11       25.90       25.66       25.39       25.07       24.66       24.06    
  26    27.86       27.85       27.84       27.83       27.80       27.78       27.75       27.71       27.67       27.62    
        27.57       27.51       27.44       27.37       27.29       27.20       27.10       27.00       26.88       26.76    
        26.62       26.46       26.30       26.11       25.90       25.66       25.39       25.07       24.66       24.06    
  27    27.86       27.85       27.84       27.83       27.80       27.78       27.75       27.71       27.67       27.62    
        27.57       27.51       27.44       27.37       27.29       27.20       27.10       27.00       26.88       26.76    
        26.62       26.46       26.30       26.11       25.90       25.66       25.39       25.07       24.66       24.06    
  28    27.86       27.85       27.84       27.83       27.80       27.78       27.75       27.71       27.67       27.62    
        27.57       27.51       27.44       27.37       27.29       27.20       27.10       27.00       26.88       26.76    
        26.62       26.46       26.30       26.11       25.90       25.66       25.39       25.07       24.66       24.06    
  29    27.86       27.85       27.84       27.83       27.80       27.78       27.75       27.71       27.67       27.62    
        27.57       27.51       27.44       27.37       27.29       27.20       27.10       27.00       26.88       26.76    
        26.62       26.46       26.30       26.11       25.90       25.66       25.39       25.07       24.66       24.06    
  30    27.86       27.85       27.84       27.83       27.80       27.78       27.75       27.71       27.67       27.62    
        27.57       27.51       27.44       27.37       27.29       27.20       27.10       27.00       26.88       26.76    
        26.62       26.46       26.30       26.11       25.90       25.66       25.39       25.07       24.66       24.06    

 HEAD WILL BE SAVED ON UNIT 1017 AT END OF TIME STEP   10, STRESS PERIOD   48


  VOLUME BUDGET FOR ENTIRE MODEL AT END OF TIME STEP   10, STRESS PERIOD  48
  ---------------------------------------------------------------------------------------------------

     CUMULATIVE VOLUME      L**3       RATES FOR THIS TIME STEP      L**3/T          PACKAGE NAME    
     ------------------                 ------------------------                     ----------------

           IN:                                      IN:
           ---                                      ---
              STO-SS =          78.4853                STO-SS =           0.0000     STORAGE         
              STO-SY =       50865.0369                STO-SY =           0.0000     STORAGE         
                 RCH =      231920.6495                   RCH =         238.3565     RCHA            
                 CHD =        4772.3889                   CHD =           0.0000     CHD             

            TOTAL IN =      287636.5606              TOTAL IN =         238.3565

          OUT:                                     OUT:
          ----                                     ----
              STO-SS =          65.8602                STO-SS =       5.7597E-02     STORAGE         
              STO-SY =       42925.5911                STO-SY =          36.3077     STORAGE         
                 RCH =           0.0000                   RCH =           0.0000     RCHA            
                 CHD =      244644.4802                   CHD =         201.9939     CHD             

           TOTAL OUT =      287635.9315             TOTAL OUT =         238.3592

            IN - OUT =           0.6291              IN - OUT =      -2.7030E-03

 PERCENT DISCREPANCY =           0.00     PERCENT DISCREPANCY =          -0.00




         TIME SUMMARY AT END OF TIME STEP   10 IN STRESS PERIOD   48
                    SECONDS     MINUTES      HOURS       DAYS        YEARS
                    -----------------------------------------------------------
   TIME STEP LENGTH 2.59200E+05  4320.0      72.000      3.0000     8.21355E-03
 STRESS PERIOD TIME 2.59200E+06  43200.      720.00      30.000     8.21355E-02
         TOTAL TIME 1.21910E+08 2.03184E+06  33864.      1411.0      3.8631    

 OUTPUT CONTROL FOR STRESS PERIOD 49 IS REPEATED USING SETTINGS FROM A PREVIOUS STRESS PERIOD.


 STRESS PERIOD 49 IS TRANSIENT


                 RECHARGE =  0.2739730E-02
 UBDSV1 SAVING           STO-SS ON UNIT   1016 AT TIME STEP      1, STRESS PERIOD     49
 UBDSV1 SAVING           STO-SY ON UNIT   1016 AT TIME STEP      1, STRESS PERIOD     49
 UBDSV1 SAVING     FLOW-JA-FACE ON UNIT   1016 AT TIME STEP      1, STRESS PERIOD     49
 UBDSV06 SAVING              RCH IN MODEL TEST_TRANS       PACKAGE TEST_TRANS      CONNECTED TO MODEL TEST_TRANS       PACKAGE RCHA             ON UNIT   1016 AT TIME STEP      1, STRESS PERIOD     49
 UBDSV06 SAVING              CHD IN MODEL TEST_TRANS       PACKAGE TEST_TRANS      CONNECTED TO MODEL TEST_TRANS       PACKAGE CHD              ON UNIT   1016 AT TIME STEP      1, STRESS PERIOD     49
1
  HEAD IN LAYER   1 AT END OF TIME STEP   1 IN STRESS PERIOD   49
  ---------------------------------------------------------------------------

            1           2           3           4           5           6           7           8           9          10
           11          12          13          14          15          16          17          18          19          20
           21          22          23          24          25          26          27          28          29          30
 ........................................................................................................................
   1    27.86       27.86       27.85       27.83       27.81       27.79       27.76       27.72       27.68       27.63    
        27.58       27.52       27.45       27.38       27.30       27.21       27.11       27.00       26.89       26.76    
        26.62       26.47       26.30       26.12       25.91       25.68       25.41       25.11       24.75       24.32    
   2    27.86       27.86       27.85       27.83       27.81       27.79       27.76       27.72       27.68       27.63    
        27.58       27.52       27.45       27.38       27.30       27.21       27.11       27.00       26.89       26.76    
        26.62       26.47       26.30       26.12       25.91       25.68       25.41       25.11       24.75       24.32    
   3    27.86       27.86       27.85       27.83       27.81       27.79       27.76       27.72       27.68       27.63    
        27.58       27.52       27.45       27.38       27.30       27.21       27.11       27.00       26.89       26.76    
        26.62       26.47       26.30       26.12       25.91       25.68       25.41       25.11       24.75       24.32    
   4    27.86       27.86       27.85       27.83       27.81       27.79       27.76       27.72       27.68       27.63    
        27.58       27.52       27.45       27.38       27.30       27.21       27.11       27.00       26.89       26.76    
        26.62       26.47       26.30       26.12       25.91       25.68       25.41       25.11       24.75       24.32    
   5    27.86       27.86       27.85       27.83       27.81       27.79       27.76       27.72       27.68       27.63    
        27.58       27.52       27.45       27.38       27.30       27.21       27.11       27.00       26.89       26.76    
        26.62       26.47       26.30       26.12       25.91       25.68       25.41       25.11       24.75       24.32    
   6    27.86       27.86       27.85       27.83       27.81       27.79       27.76       27.72       27.68       27.63    
        27.58       27.52       27.45       27.38       27.30       27.21       27.11       27.00       26.89       26.76    
        26.62       26.47       26.30       26.12       25.91       25.68       25.41       25.11       24.75       24.32    
   7    27.86       27.86       27.85       27.83       27.81       27.79       27.76       27.72       27.68       27.63    
        27.58       27.52       27.45       27.38       27.30       27.21       27.11       27.00       26.89       26.76    
        26.62       26.47       26.30       26.12       25.91       25.68       25.41       25.11       24.75       24.32    
   8    27.86       27.86       27.85       27.83       27.81       27.79       27.76       27.72       27.68       27.63    
        27.58       27.52       27.45       27.38       27.30       27.21       27.11       27.00       26.89       26.76    
        26.62       26.47       26.30       26.12       25.91       25.68       25.41       25.11       24.75       24.32    
   9    27.86       27.86       27.85       27.83       27.81       27.79       27.76       27.72       27.68       27.63    
        27.58       27.52       27.45       27.38       27.30       27.21       27.11       27.00       26.89       26.76    
        26.62       26.47       26.30       26.12       25.91       25.68       25.41       25.11       24.75       24.32    
  10    27.86       27.86       27.85       27.83       27.81       27.79       27.76       27.72       27.68       27.63    
        27.58       27.52       27.45       27.38       27.30       27.21       27.11       27.00       26.89       26.76    
        26.62       26.47       26.30       26.12       25.91       25.68       25.41       25.11       24.75       24.32    
  11    27.86       27.86       27.85       27.83       27.81       27.79       27.76       27.72       27.68       27.63    
        27.58       27.52       27.45       27.38       27.30       27.21       27.11       27.00       26.89       26.76    
        26.62       26.47       26.30       26.12       25.91       25.68       25.41       25.11       24.75       24.32    
  12    27.86       27.86       27.85       27.83       27.81       27.79       27.76       27.72       27.68       27.63    
        27.58       27.52       27.45       27.38       27.30       27.21       27.11       27.00       26.89       26.76    
        26.62       26.47       26.30       26.12       25.91       25.68       25.41       25.11       24.75       24.32    
  13    27.86       27.86       27.85       27.83       27.81       27.79       27.76       27.72       27.68       27.63    
        27.58       27.52       27.45       27.38       27.30       27.21       27.11       27.00       26.89       26.76    
        26.62       26.47       26.30       26.12       25.91       25.68       25.41       25.11       24.75       24.32    
  14    27.86       27.86       27.85       27.83       27.81       27.79       27.76       27.72       27.68       27.63    
        27.58       27.52       27.45       27.38       27.30       27.21       27.11       27.00       26.89       26.76    
        26.62       26.47       26.30       26.12       25.91       25.68       25.41       25.11       24.75       24.32    
  15    27.86       27.86       27.85       27.83       27.81       27.79       27.76       27.72       27.68       27.63    
        27.58       27.52       27.45       27.38       27.30       27.21       27.11       27.00       26.89       26.76    
        26.62       26.47       26.30       26.12       25.91       25.68       25.41       25.11       24.75       24.32    
  16    27.86       27.86       27.85       27.83       27.81       27.79       27.76       27.72       27.68       27.63    
        27.58       27.52       27.45       27.38       27.30       27.21       27.11       27.00       26.89       26.76    
        26.62       26.47       26.30       26.12       25.91       25.68       25.41       25.11       24.75       24.32    
  17    27.86       27.86       27.85       27.83       27.81       27.79       27.76       27.72       27.68       27.63    
        27.58       27.52       27.45       27.38       27.30       27.21       27.11       27.00       26.89       26.76    
        26.62       26.47       26.30       26.12       25.91       25.68       25.41       25.11       24.75       24.32    
  18    27.86       27.86       27.85       27.83       27.81       27.79       27.76       27.72       27.68       27.63    
        27.58       27.52       27.45       27.38       27.30       27.21       27.11       27.00       26.89       26.76    
        26.62       26.47       26.30       26.12       25.91       25.68       25.41       25.11       24.75       24.32    
  19    27.86       27.86       27.85       27.83       27.81       27.79       27.76       27.72       27.68       27.63    
        27.58       27.52       27.45       27.38       27.30       27.21       27.11       27.00       26.89       26.76    
        26.62       26.47       26.30       26.12       25.91       25.68       25.41       25.11       24.75       24.32    
  20    27.86       27.86       27.85       27.83       27.81       27.79       27.76       27.72       27.68       27.63    
        27.58       27.52       27.45       27.38       27.30       27.21       27.11       27.00       26.89       26.76    
        26.62       26.47       26.30       26.12       25.91       25.68       25.41       25.11       24.75       24.32    
  21    27.86       27.86       27.85       27.83       27.81       27.79       27.76       27.72       27.68       27.63    
        27.58       27.52       27.45       27.38       27.30       27.21       27.11       27.00       26.89       26.76    
        26.62       26.47       26.30       26.12       25.91       25.68       25.41       25.11       24.75       24.32    
  22    27.86       27.86       27.85       27.83       27.81       27.79       27.76       27.72       27.68       27.63    
        27.58       27.52       27.45       27.38       27.30       27.21       27.11       27.00       26.89       26.76    
        26.62       26.47       26.30       26.12       25.91       25.68       25.41       25.11       24.75       24.32    
  23    27.86       27.86       27.85       27.83       27.81       27.79       27.76       27.72       27.68       27.63    
        27.58       27.52       27.45       27.38       27.30       27.21       27.11       27.00       26.89       26.76    
        26.62       26.47       26.30       26.12       25.91       25.68       25.41       25.11       24.75       24.32    
  24    27.86       27.86       27.85       27.83       27.81       27.79       27.76       27.72       27.68       27.63    
        27.58       27.52       27.45       27.38       27.30       27.21       27.11       27.00       26.89       26.76    
        26.62       26.47       26.30       26.12       25.91       25.68       25.41       25.11       24.75       24.32    
  25    27.86       27.86       27.85       27.83       27.81       27.79       27.76       27.72       27.68       27.63    
        27.58       27.52       27.45       27.38       27.30       27.21       27.11       27.00       26.89       26.76    
        26.62       26.47       26.30       26.12       25.91       25.68       25.41       25.11       24.75       24.32    
  26    27.86       27.86       27.85       27.83       27.81       27.79       27.76       27.72       27.68       27.63    
        27.58       27.52       27.45       27.38       27.30       27.21       27.11       27.00       26.89       26.76    
        26.62       26.47       26.30       26.12       25.91       25.68       25.41       25.11       24.75       24.32    
  27    27.86       27.86       27.85       27.83       27.81       27.79       27.76       27.72       27.68       27.63    
        27.58       27.52       27.45       27.38       27.30       27.21       27.11       27.00       26.89       26.76    
        26.62       26.47       26.30       26.12       25.91       25.68       25.41       25.11       24.75       24.32    
  28    27.86       27.86       27.85       27.83       27.81       27.79       27.76       27.72       27.68       27.63    
        27.58       27.52       27.45       27.38       27.30       27.21       27.11       27.00       26.89       26.76    
        26.62       26.47       26.30       26.12       25.91       25.68       25.41       25.11       24.75       24.32    
  29    27.86       27.86       27.85       27.83       27.81       27.79       27.76       27.72       27.68       27.63    
        27.58       27.52       27.45       27.38       27.30       27.21       27.11       27.00       26.89       26.76    
        26.62       26.47       26.30       26.12       25.91       25.68       25.41       25.11       24.75       24.32    
  30    27.86       27.86       27.85       27.83       27.81       27.79       27.76       27.72       27.68       27.63    
        27.58       27.52       27.45       27.38       27.30       27.21       27.11       27.00       26.89       26.76    
        26.62       26.47       26.30       26.12       25.91       25.68       25.41       25.11       24.75       24.32    

 HEAD WILL BE SAVED ON UNIT 1017 AT END OF TIME STEP    1, STRESS PERIOD   49



         TIME SUMMARY AT END OF TIME STEP    1 IN STRESS PERIOD   49
                    SECONDS     MINUTES      HOURS       DAYS        YEARS
                    -----------------------------------------------------------
   TIME STEP LENGTH 2.59200E+05  4320.0      72.000      3.0000     8.21355E-03
 STRESS PERIOD TIME 2.59200E+05  4320.0      72.000      3.0000     8.21355E-03
         TOTAL TIME 1.22170E+08 2.03616E+06  33936.      1414.0      3.8713    
 UBDSV1 SAVING           STO-SS ON UNIT   1016 AT TIME STEP      2, STRESS PERIOD     49
 UBDSV1 SAVING           STO-SY ON UNIT   1016 AT TIME STEP      2, STRESS PERIOD     49
 UBDSV1 SAVING     FLOW-JA-FACE ON UNIT   1016 AT TIME STEP      2, STRESS PERIOD     49
 UBDSV06 SAVING              RCH IN MODEL TEST_TRANS       PACKAGE TEST_TRANS      CONNECTED TO MODEL TEST_TRANS       PACKAGE RCHA             ON UNIT   1016 AT TIME STEP      2, STRESS PERIOD     49
 UBDSV06 SAVING              CHD IN MODEL TEST_TRANS       PACKAGE TEST_TRANS      CONNECTED TO MODEL TEST_TRANS       PACKAGE CHD              ON UNIT   1016 AT TIME STEP      2, STRESS PERIOD     49

 HEAD WILL BE SAVED ON UNIT 1017 AT END OF TIME STEP    2, STRESS PERIOD   49
 UBDSV1 SAVING           STO-SS ON UNIT   1016 AT TIME STEP      3, STRESS PERIOD     49
 UBDSV1 SAVING           STO-SY ON UNIT   1016 AT TIME STEP      3, STRESS PERIOD     49
 UBDSV1 SAVING     FLOW-JA-FACE ON UNIT   1016 AT TIME STEP      3, STRESS PERIOD     49
 UBDSV06 SAVING              RCH IN MODEL TEST_TRANS       PACKAGE TEST_TRANS      CONNECTED TO MODEL TEST_TRANS       PACKAGE RCHA             ON UNIT   1016 AT TIME STEP      3, STRESS PERIOD     49
 UBDSV06 SAVING              CHD IN MODEL TEST_TRANS       PACKAGE TEST_TRANS      CONNECTED TO MODEL TEST_TRANS       PACKAGE CHD              ON UNIT   1016 AT TIME STEP      3, STRESS PERIOD     49

 HEAD WILL BE SAVED ON UNIT 1017 AT END OF TIME STEP    3, STRESS PERIOD   49
 UBDSV1 SAVING           STO-SS ON UNIT   1016 AT TIME STEP      4, STRESS PERIOD     49
 UBDSV1 SAVING           STO-SY ON UNIT   1016 AT TIME STEP      4, STRESS PERIOD     49
 UBDSV1 SAVING     FLOW-JA-FACE ON UNIT   1016 AT TIME STEP      4, STRESS PERIOD     49
 UBDSV06 SAVING              RCH IN MODEL TEST_TRANS       PACKAGE TEST_TRANS      CONNECTED TO MODEL TEST_TRANS       PACKAGE RCHA             ON UNIT   1016 AT TIME STEP      4, STRESS PERIOD     49
 UBDSV06 SAVING              CHD IN MODEL TEST_TRANS       PACKAGE TEST_TRANS      CONNECTED TO MODEL TEST_TRANS       PACKAGE CHD              ON UNIT   1016 AT TIME STEP      4, STRESS PERIOD     49

 HEAD WILL BE SAVED ON UNIT 1017 AT END OF TIME STEP    4, STRESS PERIOD   49
 UBDSV1 SAVING           STO-SS ON UNIT   1016 AT TIME STEP      5, STRESS PERIOD     49
 UBDSV1 SAVING           STO-SY ON UNIT   1016 AT TIME STEP      5, STRESS PERIOD     49
 UBDSV1 SAVING     FLOW-JA-FACE ON UNIT   1016 AT TIME STEP      5, STRESS PERIOD     49
 UBDSV06 SAVING              RCH IN MODEL TEST_TRANS       PACKAGE TEST_TRANS      CONNECTED TO MODEL TEST_TRANS       PACKAGE RCHA             ON UNIT   1016 AT TIME STEP      5, STRESS PERIOD     49
 UBDSV06 SAVING              CHD IN MODEL TEST_TRANS       PACKAGE TEST_TRANS      CONNECTED TO MODEL TEST_TRANS       PACKAGE CHD              ON UNIT   1016 AT TIME STEP      5, STRESS PERIOD     49

 HEAD WILL BE SAVED ON UNIT 1017 AT END OF TIME STEP    5, STRESS PERIOD   49
 UBDSV1 SAVING           STO-SS ON UNIT   1016 AT TIME STEP      6, STRESS PERIOD     49
 UBDSV1 SAVING           STO-SY ON UNIT   1016 AT TIME STEP      6, STRESS PERIOD     49
 UBDSV1 SAVING     FLOW-JA-FACE ON UNIT   1016 AT TIME STEP      6, STRESS PERIOD     49
 UBDSV06 SAVING              RCH IN MODEL TEST_TRANS       PACKAGE TEST_TRANS      CONNECTED TO MODEL TEST_TRANS       PACKAGE RCHA             ON UNIT   1016 AT TIME STEP      6, STRESS PERIOD     49
 UBDSV06 SAVING              CHD IN MODEL TEST_TRANS       PACKAGE TEST_TRANS      CONNECTED TO MODEL TEST_TRANS       PACKAGE CHD              ON UNIT   1016 AT TIME STEP      6, STRESS PERIOD     49

 HEAD WILL BE SAVED ON UNIT 1017 AT END OF TIME STEP    6, STRESS PERIOD   49
 UBDSV1 SAVING           STO-SS ON UNIT   1016 AT TIME STEP      7, STRESS PERIOD     49
 UBDSV1 SAVING           STO-SY ON UNIT   1016 AT TIME STEP      7, STRESS PERIOD     49
 UBDSV1 SAVING     FLOW-JA-FACE ON UNIT   1016 AT TIME STEP      7, STRESS PERIOD     49
 UBDSV06 SAVING              RCH IN MODEL TEST_TRANS       PACKAGE TEST_TRANS      CONNECTED TO MODEL TEST_TRANS       PACKAGE RCHA             ON UNIT   1016 AT TIME STEP      7, STRESS PERIOD     49
 UBDSV06 SAVING              CHD IN MODEL TEST_TRANS       PACKAGE TEST_TRANS      CONNECTED TO MODEL TEST_TRANS       PACKAGE CHD              ON UNIT   1016 AT TIME STEP      7, STRESS PERIOD     49

 HEAD WILL BE SAVED ON UNIT 1017 AT END OF TIME STEP    7, STRESS PERIOD   49
 UBDSV1 SAVING           STO-SS ON UNIT   1016 AT TIME STEP      8, STRESS PERIOD     49
 UBDSV1 SAVING           STO-SY ON UNIT   1016 AT TIME STEP      8, STRESS PERIOD     49
 UBDSV1 SAVING     FLOW-JA-FACE ON UNIT   1016 AT TIME STEP      8, STRESS PERIOD     49
 UBDSV06 SAVING              RCH IN MODEL TEST_TRANS       PACKAGE TEST_TRANS      CONNECTED TO MODEL TEST_TRANS       PACKAGE RCHA             ON UNIT   1016 AT TIME STEP      8, STRESS PERIOD     49
 UBDSV06 SAVING              CHD IN MODEL TEST_TRANS       PACKAGE TEST_TRANS      CONNECTED TO MODEL TEST_TRANS       PACKAGE CHD              ON UNIT   1016 AT TIME STEP      8, STRESS PERIOD     49

 HEAD WILL BE SAVED ON UNIT 1017 AT END OF TIME STEP    8, STRESS PERIOD   49
 UBDSV1 SAVING           STO-SS ON UNIT   1016 AT TIME STEP      9, STRESS PERIOD     49
 UBDSV1 SAVING           STO-SY ON UNIT   1016 AT TIME STEP      9, STRESS PERIOD     49
 UBDSV1 SAVING     FLOW-JA-FACE ON UNIT   1016 AT TIME STEP      9, STRESS PERIOD     49
 UBDSV06 SAVING              RCH IN MODEL TEST_TRANS       PACKAGE TEST_TRANS      CONNECTED TO MODEL TEST_TRANS       PACKAGE RCHA             ON UNIT   1016 AT TIME STEP      9, STRESS PERIOD     49
 UBDSV06 SAVING              CHD IN MODEL TEST_TRANS       PACKAGE TEST_TRANS      CONNECTED TO MODEL TEST_TRANS       PACKAGE CHD              ON UNIT   1016 AT TIME STEP      9, STRESS PERIOD     49

 HEAD WILL BE SAVED ON UNIT 1017 AT END OF TIME STEP    9, STRESS PERIOD   49
 UBDSV1 SAVING           STO-SS ON UNIT   1016 AT TIME STEP     10, STRESS PERIOD     49
 UBDSV1 SAVING           STO-SY ON UNIT   1016 AT TIME STEP     10, STRESS PERIOD     49
 UBDSV1 SAVING     FLOW-JA-FACE ON UNIT   1016 AT TIME STEP     10, STRESS PERIOD     49
 UBDSV06 SAVING              RCH IN MODEL TEST_TRANS       PACKAGE TEST_TRANS      CONNECTED TO MODEL TEST_TRANS       PACKAGE RCHA             ON UNIT   1016 AT TIME STEP     10, STRESS PERIOD     49
 UBDSV06 SAVING              CHD IN MODEL TEST_TRANS       PACKAGE TEST_TRANS      CONNECTED TO MODEL TEST_TRANS       PACKAGE CHD              ON UNIT   1016 AT TIME STEP     10, STRESS PERIOD     49
1
  HEAD IN LAYER   1 AT END OF TIME STEP  10 IN STRESS PERIOD   49
  ---------------------------------------------------------------------------

            1           2           3           4           5           6           7           8           9          10
           11          12          13          14          15          16          17          18          19          20
           21          22          23          24          25          26          27          28          29          30
 ........................................................................................................................
   1    27.94       27.94       27.93       27.91       27.89       27.86       27.83       27.79       27.75       27.70    
        27.65       27.59       27.52       27.44       27.36       27.27       27.17       27.07       26.95       26.82    
        26.69       26.54       26.37       26.19       25.98       25.76       25.50       25.19       24.82       24.32    
   2    27.94       27.94       27.93       27.91       27.89       27.86       27.83       27.79       27.75       27.70    
        27.65       27.59       27.52       27.44       27.36       27.27       27.17       27.07       26.95       26.82    
        26.69       26.54       26.37       26.19       25.98       25.76       25.50       25.19       24.82       24.32    
   3    27.94       27.94       27.93       27.91       27.89       27.86       27.83       27.79       27.75       27.70    
        27.65       27.59       27.52       27.44       27.36       27.27       27.17       27.07       26.95       26.82    
        26.69       26.54       26.37       26.19       25.98       25.76       25.50       25.19       24.82       24.32    
   4    27.94       27.94       27.93       27.91       27.89       27.86       27.83       27.79       27.75       27.70    
        27.65       27.59       27.52       27.44       27.36       27.27       27.17       27.07       26.95       26.82    
        26.69       26.54       26.37       26.19       25.98       25.76       25.50       25.19       24.82       24.32    
   5    27.94       27.94       27.93       27.91       27.89       27.86       27.83       27.79       27.75       27.70    
        27.65       27.59       27.52       27.44       27.36       27.27       27.17       27.07       26.95       26.82    
        26.69       26.54       26.37       26.19       25.98       25.76       25.50       25.19       24.82       24.32    
   6    27.94       27.94       27.93       27.91       27.89       27.86       27.83       27.79       27.75       27.70    
        27.65       27.59       27.52       27.44       27.36       27.27       27.17       27.07       26.95       26.82    
        26.69       26.54       26.37       26.19       25.98       25.76       25.50       25.19       24.82       24.32    
   7    27.94       27.94       27.93       27.91       27.89       27.86       27.83       27.79       27.75       27.70    
        27.65       27.59       27.52       27.44       27.36       27.27       27.17       27.07       26.95       26.82    
        26.69       26.54       26.37       26.19       25.98       25.76       25.50       25.19       24.82       24.32    
   8    27.94       27.94       27.93       27.91       27.89       27.86       27.83       27.79       27.75       27.70    
        27.65       27.59       27.52       27.44       27.36       27.27       27.17       27.07       26.95       26.82    
        26.69       26.54       26.37       26.19       25.98       25.76       25.50       25.19       24.82       24.32    
   9    27.94       27.94       27.93       27.91       27.89       27.86       27.83       27.79       27.75       27.70    
        27.65       27.59       27.52       27.44       27.36       27.27       27.17       27.07       26.95       26.82    
        26.69       26.54       26.37       26.19       25.98       25.76       25.50       25.19       24.82       24.32    
  10    27.94       27.94       27.93       27.91       27.89       27.86       27.83       27.79       27.75       27.70    
        27.65       27.59       27.52       27.44       27.36       27.27       27.17       27.07       26.95       26.82    
        26.69       26.54       26.37       26.19       25.98       25.76       25.50       25.19       24.82       24.32    
  11    27.94       27.94       27.93       27.91       27.89       27.86       27.83       27.79       27.75       27.70    
        27.65       27.59       27.52       27.44       27.36       27.27       27.17       27.07       26.95       26.82    
        26.69       26.54       26.37       26.19       25.98       25.76       25.50       25.19       24.82       24.32    
  12    27.94       27.94       27.93       27.91       27.89       27.86       27.83       27.79       27.75       27.70    
        27.65       27.59       27.52       27.44       27.36       27.27       27.17       27.07       26.95       26.82    
        26.69       26.54       26.37       26.19       25.98       25.76       25.50       25.19       24.82       24.32    
  13    27.94       27.94       27.93       27.91       27.89       27.86       27.83       27.79       27.75       27.70    
        27.65       27.59       27.52       27.44       27.36       27.27       27.17       27.07       26.95       26.82    
        26.69       26.54       26.37       26.19       25.98       25.76       25.50       25.19       24.82       24.32    
  14    27.94       27.94       27.93       27.91       27.89       27.86       27.83       27.79       27.75       27.70    
        27.65       27.59       27.52       27.44       27.36       27.27       27.17       27.07       26.95       26.82    
        26.69       26.54       26.37       26.19       25.98       25.76       25.50       25.19       24.82       24.32    
  15    27.94       27.94       27.93       27.91       27.89       27.86       27.83       27.79       27.75       27.70    
        27.65       27.59       27.52       27.44       27.36       27.27       27.17       27.07       26.95       26.82    
        26.69       26.54       26.37       26.19       25.98       25.76       25.50       25.19       24.82       24.32    
  16    27.94       27.94       27.93       27.91       27.89       27.86       27.83       27.79       27.75       27.70    
        27.65       27.59       27.52       27.44       27.36       27.27       27.17       27.07       26.95       26.82    
        26.69       26.54       26.37       26.19       25.98       25.76       25.50       25.19       24.82       24.32    
  17    27.94       27.94       27.93       27.91       27.89       27.86       27.83       27.79       27.75       27.70    
        27.65       27.59       27.52       27.44       27.36       27.27       27.17       27.07       26.95       26.82    
        26.69       26.54       26.37       26.19       25.98       25.76       25.50       25.19       24.82       24.32    
  18    27.94       27.94       27.93       27.91       27.89       27.86       27.83       27.79       27.75       27.70    
        27.65       27.59       27.52       27.44       27.36       27.27       27.17       27.07       26.95       26.82    
        26.69       26.54       26.37       26.19       25.98       25.76       25.50       25.19       24.82       24.32    
  19    27.94       27.94       27.93       27.91       27.89       27.86       27.83       27.79       27.75       27.70    
        27.65       27.59       27.52       27.44       27.36       27.27       27.17       27.07       26.95       26.82    
        26.69       26.54       26.37       26.19       25.98       25.76       25.50       25.19       24.82       24.32    
  20    27.94       27.94       27.93       27.91       27.89       27.86       27.83       27.79       27.75       27.70    
        27.65       27.59       27.52       27.44       27.36       27.27       27.17       27.07       26.95       26.82    
        26.69       26.54       26.37       26.19       25.98       25.76       25.50       25.19       24.82       24.32    
  21    27.94       27.94       27.93       27.91       27.89       27.86       27.83       27.79       27.75       27.70    
        27.65       27.59       27.52       27.44       27.36       27.27       27.17       27.07       26.95       26.82    
        26.69       26.54       26.37       26.19       25.98       25.76       25.50       25.19       24.82       24.32    
  22    27.94       27.94       27.93       27.91       27.89       27.86       27.83       27.79       27.75       27.70    
        27.65       27.59       27.52       27.44       27.36       27.27       27.17       27.07       26.95       26.82    
        26.69       26.54       26.37       26.19       25.98       25.76       25.50       25.19       24.82       24.32    
  23    27.94       27.94       27.93       27.91       27.89       27.86       27.83       27.79       27.75       27.70    
        27.65       27.59       27.52       27.44       27.36       27.27       27.17       27.07       26.95       26.82    
        26.69       26.54       26.37       26.19       25.98       25.76       25.50       25.19       24.82       24.32    
  24    27.94       27.94       27.93       27.91       27.89       27.86       27.83       27.79       27.75       27.70    
        27.65       27.59       27.52       27.44       27.36       27.27       27.17       27.07       26.95       26.82    
        26.69       26.54       26.37       26.19       25.98       25.76       25.50       25.19       24.82       24.32    
  25    27.94       27.94       27.93       27.91       27.89       27.86       27.83       27.79       27.75       27.70    
        27.65       27.59       27.52       27.44       27.36       27.27       27.17       27.07       26.95       26.82    
        26.69       26.54       26.37       26.19       25.98       25.76       25.50       25.19       24.82       24.32    
  26    27.94       27.94       27.93       27.91       27.89       27.86       27.83       27.79       27.75       27.70    
        27.65       27.59       27.52       27.44       27.36       27.27       27.17       27.07       26.95       26.82    
        26.69       26.54       26.37       26.19       25.98       25.76       25.50       25.19       24.82       24.32    
  27    27.94       27.94       27.93       27.91       27.89       27.86       27.83       27.79       27.75       27.70    
        27.65       27.59       27.52       27.44       27.36       27.27       27.17       27.07       26.95       26.82    
        26.69       26.54       26.37       26.19       25.98       25.76       25.50       25.19       24.82       24.32    
  28    27.94       27.94       27.93       27.91       27.89       27.86       27.83       27.79       27.75       27.70    
        27.65       27.59       27.52       27.44       27.36       27.27       27.17       27.07       26.95       26.82    
        26.69       26.54       26.37       26.19       25.98       25.76       25.50       25.19       24.82       24.32    
  29    27.94       27.94       27.93       27.91       27.89       27.86       27.83       27.79       27.75       27.70    
        27.65       27.59       27.52       27.44       27.36       27.27       27.17       27.07       26.95       26.82    
        26.69       26.54       26.37       26.19       25.98       25.76       25.50       25.19       24.82       24.32    
  30    27.94       27.94       27.93       27.91       27.89       27.86       27.83       27.79       27.75       27.70    
        27.65       27.59       27.52       27.44       27.36       27.27       27.17       27.07       26.95       26.82    
        26.69       26.54       26.37       26.19       25.98       25.76       25.50       25.19       24.82       24.32    

 HEAD WILL BE SAVED ON UNIT 1017 AT END OF TIME STEP   10, STRESS PERIOD   49


  VOLUME BUDGET FOR ENTIRE MODEL AT END OF TIME STEP   10, STRESS PERIOD  49
  ---------------------------------------------------------------------------------------------------

     CUMULATIVE VOLUME      L**3       RATES FOR THIS TIME STEP      L**3/T          PACKAGE NAME    
     ------------------                 ------------------------                     ----------------

           IN:                                      IN:
           ---                                      ---
              STO-SS =          78.4853                STO-SS =           0.0000     STORAGE         
              STO-SY =       50865.0369                STO-SY =           0.0000     STORAGE         
                 RCH =      239071.3448                   RCH =         238.3565     RCHA            
                 CHD =        4772.3889                   CHD =           0.0000     CHD             

            TOTAL IN =      294787.2559              TOTAL IN =         238.3565

          OUT:                                     OUT:
          ----                                     ----
              STO-SS =          68.0896                STO-SS =       6.1901E-02     STORAGE         
              STO-SY =       44375.1600                STO-SY =          39.3857     STORAGE         
                 RCH =           0.0000                   RCH =           0.0000     RCHA            
                 CHD =      250343.4898                   CHD =         198.9140     CHD             

           TOTAL OUT =      294786.7393             TOTAL OUT =         238.3616

            IN - OUT =           0.5166              IN - OUT =      -5.0573E-03

 PERCENT DISCREPANCY =           0.00     PERCENT DISCREPANCY =          -0.00




         TIME SUMMARY AT END OF TIME STEP   10 IN STRESS PERIOD   49
                    SECONDS     MINUTES      HOURS       DAYS        YEARS
                    -----------------------------------------------------------
   TIME STEP LENGTH 2.59200E+05  4320.0      72.000      3.0000     8.21355E-03
 STRESS PERIOD TIME 2.59200E+06  43200.      720.00      30.000     8.21355E-02
         TOTAL TIME 1.24502E+08 2.07504E+06  34584.      1441.0      3.9452    

 OUTPUT CONTROL FOR STRESS PERIOD 50 IS REPEATED USING SETTINGS FROM A PREVIOUS STRESS PERIOD.


 STRESS PERIOD 50 IS TRANSIENT


                 RECHARGE =  0.3287670E-02
 UBDSV1 SAVING           STO-SS ON UNIT   1016 AT TIME STEP      1, STRESS PERIOD     50
 UBDSV1 SAVING           STO-SY ON UNIT   1016 AT TIME STEP      1, STRESS PERIOD     50
 UBDSV1 SAVING     FLOW-JA-FACE ON UNIT   1016 AT TIME STEP      1, STRESS PERIOD     50
 UBDSV06 SAVING              RCH IN MODEL TEST_TRANS       PACKAGE TEST_TRANS      CONNECTED TO MODEL TEST_TRANS       PACKAGE RCHA             ON UNIT   1016 AT TIME STEP      1, STRESS PERIOD     50
 UBDSV06 SAVING              CHD IN MODEL TEST_TRANS       PACKAGE TEST_TRANS      CONNECTED TO MODEL TEST_TRANS       PACKAGE CHD              ON UNIT   1016 AT TIME STEP      1, STRESS PERIOD     50
1
  HEAD IN LAYER   1 AT END OF TIME STEP   1 IN STRESS PERIOD   50
  ---------------------------------------------------------------------------

            1           2           3           4           5           6           7           8           9          10
           11          12          13          14          15          16          17          18          19          20
           21          22          23          24          25          26          27          28          29          30
 ........................................................................................................................
   1    27.96       27.95       27.94       27.93       27.90       27.88       27.85       27.81       27.77       27.72    
        27.66       27.60       27.53       27.46       27.38       27.29       27.19       27.08       26.97       26.84    
        26.70       26.55       26.39       26.20       26.00       25.78       25.52       25.23       24.90       24.49    
   2    27.96       27.95       27.94       27.93       27.90       27.88       27.85       27.81       27.77       27.72    
        27.66       27.60       27.53       27.46       27.38       27.29       27.19       27.08       26.97       26.84    
        26.70       26.55       26.39       26.20       26.00       25.78       25.52       25.23       24.90       24.49    
   3    27.96       27.95       27.94       27.93       27.90       27.88       27.85       27.81       27.77       27.72    
        27.66       27.60       27.53       27.46       27.38       27.29       27.19       27.08       26.97       26.84    
        26.70       26.55       26.39       26.20       26.00       25.78       25.52       25.23       24.90       24.49    
   4    27.96       27.95       27.94       27.93       27.90       27.88       27.85       27.81       27.77       27.72    
        27.66       27.60       27.53       27.46       27.38       27.29       27.19       27.08       26.97       26.84    
        26.70       26.55       26.39       26.20       26.00       25.78       25.52       25.23       24.90       24.49    
   5    27.96       27.95       27.94       27.93       27.90       27.88       27.85       27.81       27.77       27.72    
        27.66       27.60       27.53       27.46       27.38       27.29       27.19       27.08       26.97       26.84    
        26.70       26.55       26.39       26.20       26.00       25.78       25.52       25.23       24.90       24.49    
   6    27.96       27.95       27.94       27.93       27.90       27.88       27.85       27.81       27.77       27.72    
        27.66       27.60       27.53       27.46       27.38       27.29       27.19       27.08       26.97       26.84    
        26.70       26.55       26.39       26.20       26.00       25.78       25.52       25.23       24.90       24.49    
   7    27.96       27.95       27.94       27.93       27.90       27.88       27.85       27.81       27.77       27.72    
        27.66       27.60       27.53       27.46       27.38       27.29       27.19       27.08       26.97       26.84    
        26.70       26.55       26.39       26.20       26.00       25.78       25.52       25.23       24.90       24.49    
   8    27.96       27.95       27.94       27.93       27.90       27.88       27.85       27.81       27.77       27.72    
        27.66       27.60       27.53       27.46       27.38       27.29       27.19       27.08       26.97       26.84    
        26.70       26.55       26.39       26.20       26.00       25.78       25.52       25.23       24.90       24.49    
   9    27.96       27.95       27.94       27.93       27.90       27.88       27.85       27.81       27.77       27.72    
        27.66       27.60       27.53       27.46       27.38       27.29       27.19       27.08       26.97       26.84    
        26.70       26.55       26.39       26.20       26.00       25.78       25.52       25.23       24.90       24.49    
  10    27.96       27.95       27.94       27.93       27.90       27.88       27.85       27.81       27.77       27.72    
        27.66       27.60       27.53       27.46       27.38       27.29       27.19       27.08       26.97       26.84    
        26.70       26.55       26.39       26.20       26.00       25.78       25.52       25.23       24.90       24.49    
  11    27.96       27.95       27.94       27.93       27.90       27.88       27.85       27.81       27.77       27.72    
        27.66       27.60       27.53       27.46       27.38       27.29       27.19       27.08       26.97       26.84    
        26.70       26.55       26.39       26.20       26.00       25.78       25.52       25.23       24.90       24.49    
  12    27.96       27.95       27.94       27.93       27.90       27.88       27.85       27.81       27.77       27.72    
        27.66       27.60       27.53       27.46       27.38       27.29       27.19       27.08       26.97       26.84    
        26.70       26.55       26.39       26.20       26.00       25.78       25.52       25.23       24.90       24.49    
  13    27.96       27.95       27.94       27.93       27.90       27.88       27.85       27.81       27.77       27.72    
        27.66       27.60       27.53       27.46       27.38       27.29       27.19       27.08       26.97       26.84    
        26.70       26.55       26.39       26.20       26.00       25.78       25.52       25.23       24.90       24.49    
  14    27.96       27.95       27.94       27.93       27.90       27.88       27.85       27.81       27.77       27.72    
        27.66       27.60       27.53       27.46       27.38       27.29       27.19       27.08       26.97       26.84    
        26.70       26.55       26.39       26.20       26.00       25.78       25.52       25.23       24.90       24.49    
  15    27.96       27.95       27.94       27.93       27.90       27.88       27.85       27.81       27.77       27.72    
        27.66       27.60       27.53       27.46       27.38       27.29       27.19       27.08       26.97       26.84    
        26.70       26.55       26.39       26.20       26.00       25.78       25.52       25.23       24.90       24.49    
  16    27.96       27.95       27.94       27.93       27.90       27.88       27.85       27.81       27.77       27.72    
        27.66       27.60       27.53       27.46       27.38       27.29       27.19       27.08       26.97       26.84    
        26.70       26.55       26.39       26.20       26.00       25.78       25.52       25.23       24.90       24.49    
  17    27.96       27.95       27.94       27.93       27.90       27.88       27.85       27.81       27.77       27.72    
        27.66       27.60       27.53       27.46       27.38       27.29       27.19       27.08       26.97       26.84    
        26.70       26.55       26.39       26.20       26.00       25.78       25.52       25.23       24.90       24.49    
  18    27.96       27.95       27.94       27.93       27.90       27.88       27.85       27.81       27.77       27.72    
        27.66       27.60       27.53       27.46       27.38       27.29       27.19       27.08       26.97       26.84    
        26.70       26.55       26.39       26.20       26.00       25.78       25.52       25.23       24.90       24.49    
  19    27.96       27.95       27.94       27.93       27.90       27.88       27.85       27.81       27.77       27.72    
        27.66       27.60       27.53       27.46       27.38       27.29       27.19       27.08       26.97       26.84    
        26.70       26.55       26.39       26.20       26.00       25.78       25.52       25.23       24.90       24.49    
  20    27.96       27.95       27.94       27.93       27.90       27.88       27.85       27.81       27.77       27.72    
        27.66       27.60       27.53       27.46       27.38       27.29       27.19       27.08       26.97       26.84    
        26.70       26.55       26.39       26.20       26.00       25.78       25.52       25.23       24.90       24.49    
  21    27.96       27.95       27.94       27.93       27.90       27.88       27.85       27.81       27.77       27.72    
        27.66       27.60       27.53       27.46       27.38       27.29       27.19       27.08       26.97       26.84    
        26.70       26.55       26.39       26.20       26.00       25.78       25.52       25.23       24.90       24.49    
  22    27.96       27.95       27.94       27.93       27.90       27.88       27.85       27.81       27.77       27.72    
        27.66       27.60       27.53       27.46       27.38       27.29       27.19       27.08       26.97       26.84    
        26.70       26.55       26.39       26.20       26.00       25.78       25.52       25.23       24.90       24.49    
  23    27.96       27.95       27.94       27.93       27.90       27.88       27.85       27.81       27.77       27.72    
        27.66       27.60       27.53       27.46       27.38       27.29       27.19       27.08       26.97       26.84    
        26.70       26.55       26.39       26.20       26.00       25.78       25.52       25.23       24.90       24.49    
  24    27.96       27.95       27.94       27.93       27.90       27.88       27.85       27.81       27.77       27.72    
        27.66       27.60       27.53       27.46       27.38       27.29       27.19       27.08       26.97       26.84    
        26.70       26.55       26.39       26.20       26.00       25.78       25.52       25.23       24.90       24.49    
  25    27.96       27.95       27.94       27.93       27.90       27.88       27.85       27.81       27.77       27.72    
        27.66       27.60       27.53       27.46       27.38       27.29       27.19       27.08       26.97       26.84    
        26.70       26.55       26.39       26.20       26.00       25.78       25.52       25.23       24.90       24.49    
  26    27.96       27.95       27.94       27.93       27.90       27.88       27.85       27.81       27.77       27.72    
        27.66       27.60       27.53       27.46       27.38       27.29       27.19       27.08       26.97       26.84    
        26.70       26.55       26.39       26.20       26.00       25.78       25.52       25.23       24.90       24.49    
  27    27.96       27.95       27.94       27.93       27.90       27.88       27.85       27.81       27.77       27.72    
        27.66       27.60       27.53       27.46       27.38       27.29       27.19       27.08       26.97       26.84    
        26.70       26.55       26.39       26.20       26.00       25.78       25.52       25.23       24.90       24.49    
  28    27.96       27.95       27.94       27.93       27.90       27.88       27.85       27.81       27.77       27.72    
        27.66       27.60       27.53       27.46       27.38       27.29       27.19       27.08       26.97       26.84    
        26.70       26.55       26.39       26.20       26.00       25.78       25.52       25.23       24.90       24.49    
  29    27.96       27.95       27.94       27.93       27.90       27.88       27.85       27.81       27.77       27.72    
        27.66       27.60       27.53       27.46       27.38       27.29       27.19       27.08       26.97       26.84    
        26.70       26.55       26.39       26.20       26.00       25.78       25.52       25.23       24.90       24.49    
  30    27.96       27.95       27.94       27.93       27.90       27.88       27.85       27.81       27.77       27.72    
        27.66       27.60       27.53       27.46       27.38       27.29       27.19       27.08       26.97       26.84    
        26.70       26.55       26.39       26.20       26.00       25.78       25.52       25.23       24.90       24.49    

 HEAD WILL BE SAVED ON UNIT 1017 AT END OF TIME STEP    1, STRESS PERIOD   50



         TIME SUMMARY AT END OF TIME STEP    1 IN STRESS PERIOD   50
                    SECONDS     MINUTES      HOURS       DAYS        YEARS
                    -----------------------------------------------------------
   TIME STEP LENGTH 2.59200E+05  4320.0      72.000      3.0000     8.21355E-03
 STRESS PERIOD TIME 2.59200E+05  4320.0      72.000      3.0000     8.21355E-03
         TOTAL TIME 1.24762E+08 2.07936E+06  34656.      1444.0      3.9535    
 UBDSV1 SAVING           STO-SS ON UNIT   1016 AT TIME STEP      2, STRESS PERIOD     50
 UBDSV1 SAVING           STO-SY ON UNIT   1016 AT TIME STEP      2, STRESS PERIOD     50
 UBDSV1 SAVING     FLOW-JA-FACE ON UNIT   1016 AT TIME STEP      2, STRESS PERIOD     50
 UBDSV06 SAVING              RCH IN MODEL TEST_TRANS       PACKAGE TEST_TRANS      CONNECTED TO MODEL TEST_TRANS       PACKAGE RCHA             ON UNIT   1016 AT TIME STEP      2, STRESS PERIOD     50
 UBDSV06 SAVING              CHD IN MODEL TEST_TRANS       PACKAGE TEST_TRANS      CONNECTED TO MODEL TEST_TRANS       PACKAGE CHD              ON UNIT   1016 AT TIME STEP      2, STRESS PERIOD     50

 HEAD WILL BE SAVED ON UNIT 1017 AT END OF TIME STEP    2, STRESS PERIOD   50
 UBDSV1 SAVING           STO-SS ON UNIT   1016 AT TIME STEP      3, STRESS PERIOD     50
 UBDSV1 SAVING           STO-SY ON UNIT   1016 AT TIME STEP      3, STRESS PERIOD     50
 UBDSV1 SAVING     FLOW-JA-FACE ON UNIT   1016 AT TIME STEP      3, STRESS PERIOD     50
 UBDSV06 SAVING              RCH IN MODEL TEST_TRANS       PACKAGE TEST_TRANS      CONNECTED TO MODEL TEST_TRANS       PACKAGE RCHA             ON UNIT   1016 AT TIME STEP      3, STRESS PERIOD     50
 UBDSV06 SAVING              CHD IN MODEL TEST_TRANS       PACKAGE TEST_TRANS      CONNECTED TO MODEL TEST_TRANS       PACKAGE CHD              ON UNIT   1016 AT TIME STEP      3, STRESS PERIOD     50

 HEAD WILL BE SAVED ON UNIT 1017 AT END OF TIME STEP    3, STRESS PERIOD   50
 UBDSV1 SAVING           STO-SS ON UNIT   1016 AT TIME STEP      4, STRESS PERIOD     50
 UBDSV1 SAVING           STO-SY ON UNIT   1016 AT TIME STEP      4, STRESS PERIOD     50
 UBDSV1 SAVING     FLOW-JA-FACE ON UNIT   1016 AT TIME STEP      4, STRESS PERIOD     50
 UBDSV06 SAVING              RCH IN MODEL TEST_TRANS       PACKAGE TEST_TRANS      CONNECTED TO MODEL TEST_TRANS       PACKAGE RCHA             ON UNIT   1016 AT TIME STEP      4, STRESS PERIOD     50
 UBDSV06 SAVING              CHD IN MODEL TEST_TRANS       PACKAGE TEST_TRANS      CONNECTED TO MODEL TEST_TRANS       PACKAGE CHD              ON UNIT   1016 AT TIME STEP      4, STRESS PERIOD     50

 HEAD WILL BE SAVED ON UNIT 1017 AT END OF TIME STEP    4, STRESS PERIOD   50
 UBDSV1 SAVING           STO-SS ON UNIT   1016 AT TIME STEP      5, STRESS PERIOD     50
 UBDSV1 SAVING           STO-SY ON UNIT   1016 AT TIME STEP      5, STRESS PERIOD     50
 UBDSV1 SAVING     FLOW-JA-FACE ON UNIT   1016 AT TIME STEP      5, STRESS PERIOD     50
 UBDSV06 SAVING              RCH IN MODEL TEST_TRANS       PACKAGE TEST_TRANS      CONNECTED TO MODEL TEST_TRANS       PACKAGE RCHA             ON UNIT   1016 AT TIME STEP      5, STRESS PERIOD     50
 UBDSV06 SAVING              CHD IN MODEL TEST_TRANS       PACKAGE TEST_TRANS      CONNECTED TO MODEL TEST_TRANS       PACKAGE CHD              ON UNIT   1016 AT TIME STEP      5, STRESS PERIOD     50

 HEAD WILL BE SAVED ON UNIT 1017 AT END OF TIME STEP    5, STRESS PERIOD   50
 UBDSV1 SAVING           STO-SS ON UNIT   1016 AT TIME STEP      6, STRESS PERIOD     50
 UBDSV1 SAVING           STO-SY ON UNIT   1016 AT TIME STEP      6, STRESS PERIOD     50
 UBDSV1 SAVING     FLOW-JA-FACE ON UNIT   1016 AT TIME STEP      6, STRESS PERIOD     50
 UBDSV06 SAVING              RCH IN MODEL TEST_TRANS       PACKAGE TEST_TRANS      CONNECTED TO MODEL TEST_TRANS       PACKAGE RCHA             ON UNIT   1016 AT TIME STEP      6, STRESS PERIOD     50
 UBDSV06 SAVING              CHD IN MODEL TEST_TRANS       PACKAGE TEST_TRANS      CONNECTED TO MODEL TEST_TRANS       PACKAGE CHD              ON UNIT   1016 AT TIME STEP      6, STRESS PERIOD     50

 HEAD WILL BE SAVED ON UNIT 1017 AT END OF TIME STEP    6, STRESS PERIOD   50
 UBDSV1 SAVING           STO-SS ON UNIT   1016 AT TIME STEP      7, STRESS PERIOD     50
 UBDSV1 SAVING           STO-SY ON UNIT   1016 AT TIME STEP      7, STRESS PERIOD     50
 UBDSV1 SAVING     FLOW-JA-FACE ON UNIT   1016 AT TIME STEP      7, STRESS PERIOD     50
 UBDSV06 SAVING              RCH IN MODEL TEST_TRANS       PACKAGE TEST_TRANS      CONNECTED TO MODEL TEST_TRANS       PACKAGE RCHA             ON UNIT   1016 AT TIME STEP      7, STRESS PERIOD     50
 UBDSV06 SAVING              CHD IN MODEL TEST_TRANS       PACKAGE TEST_TRANS      CONNECTED TO MODEL TEST_TRANS       PACKAGE CHD              ON UNIT   1016 AT TIME STEP      7, STRESS PERIOD     50

 HEAD WILL BE SAVED ON UNIT 1017 AT END OF TIME STEP    7, STRESS PERIOD   50
 UBDSV1 SAVING           STO-SS ON UNIT   1016 AT TIME STEP      8, STRESS PERIOD     50
 UBDSV1 SAVING           STO-SY ON UNIT   1016 AT TIME STEP      8, STRESS PERIOD     50
 UBDSV1 SAVING     FLOW-JA-FACE ON UNIT   1016 AT TIME STEP      8, STRESS PERIOD     50
 UBDSV06 SAVING              RCH IN MODEL TEST_TRANS       PACKAGE TEST_TRANS      CONNECTED TO MODEL TEST_TRANS       PACKAGE RCHA             ON UNIT   1016 AT TIME STEP      8, STRESS PERIOD     50
 UBDSV06 SAVING              CHD IN MODEL TEST_TRANS       PACKAGE TEST_TRANS      CONNECTED TO MODEL TEST_TRANS       PACKAGE CHD              ON UNIT   1016 AT TIME STEP      8, STRESS PERIOD     50

 HEAD WILL BE SAVED ON UNIT 1017 AT END OF TIME STEP    8, STRESS PERIOD   50
 UBDSV1 SAVING           STO-SS ON UNIT   1016 AT TIME STEP      9, STRESS PERIOD     50
 UBDSV1 SAVING           STO-SY ON UNIT   1016 AT TIME STEP      9, STRESS PERIOD     50
 UBDSV1 SAVING     FLOW-JA-FACE ON UNIT   1016 AT TIME STEP      9, STRESS PERIOD     50
 UBDSV06 SAVING              RCH IN MODEL TEST_TRANS       PACKAGE TEST_TRANS      CONNECTED TO MODEL TEST_TRANS       PACKAGE RCHA             ON UNIT   1016 AT TIME STEP      9, STRESS PERIOD     50
 UBDSV06 SAVING              CHD IN MODEL TEST_TRANS       PACKAGE TEST_TRANS      CONNECTED TO MODEL TEST_TRANS       PACKAGE CHD              ON UNIT   1016 AT TIME STEP      9, STRESS PERIOD     50

 HEAD WILL BE SAVED ON UNIT 1017 AT END OF TIME STEP    9, STRESS PERIOD   50
 UBDSV1 SAVING           STO-SS ON UNIT   1016 AT TIME STEP     10, STRESS PERIOD     50
 UBDSV1 SAVING           STO-SY ON UNIT   1016 AT TIME STEP     10, STRESS PERIOD     50
 UBDSV1 SAVING     FLOW-JA-FACE ON UNIT   1016 AT TIME STEP     10, STRESS PERIOD     50
 UBDSV06 SAVING              RCH IN MODEL TEST_TRANS       PACKAGE TEST_TRANS      CONNECTED TO MODEL TEST_TRANS       PACKAGE RCHA             ON UNIT   1016 AT TIME STEP     10, STRESS PERIOD     50
 UBDSV06 SAVING              CHD IN MODEL TEST_TRANS       PACKAGE TEST_TRANS      CONNECTED TO MODEL TEST_TRANS       PACKAGE CHD              ON UNIT   1016 AT TIME STEP     10, STRESS PERIOD     50
1
  HEAD IN LAYER   1 AT END OF TIME STEP  10 IN STRESS PERIOD   50
  ---------------------------------------------------------------------------

            1           2           3           4           5           6           7           8           9          10
           11          12          13          14          15          16          17          18          19          20
           21          22          23          24          25          26          27          28          29          30
 ........................................................................................................................
   1    28.09       28.09       28.08       28.06       28.04       28.02       27.98       27.95       27.90       27.85    
        27.80       27.74       27.67       27.59       27.51       27.42       27.32       27.21       27.10       26.97    
        26.83       26.68       26.51       26.33       26.13       25.90       25.64       25.34       24.97       24.49    
   2    28.09       28.09       28.08       28.06       28.04       28.02       27.98       27.95       27.90       27.85    
        27.80       27.74       27.67       27.59       27.51       27.42       27.32       27.21       27.10       26.97    
        26.83       26.68       26.51       26.33       26.13       25.90       25.64       25.34       24.97       24.49    
   3    28.09       28.09       28.08       28.06       28.04       28.02       27.98       27.95       27.90       27.85    
        27.80       27.74       27.67       27.59       27.51       27.42       27.32       27.21       27.10       26.97    
        26.83       26.68       26.51       26.33       26.13       25.90       25.64       25.34       24.97       24.49    
   4    28.09       28.09       28.08       28.06       28.04       28.02       27.98       27.95       27.90       27.85    
        27.80       27.74       27.67       27.59       27.51       27.42       27.32       27.21       27.10       26.97    
        26.83       26.68       26.51       26.33       26.13       25.90       25.64       25.34       24.97       24.49    
   5    28.09       28.09       28.08       28.06       28.04       28.02       27.98       27.95       27.90       27.85    
        27.80       27.74       27.67       27.59       27.51       27.42       27.32       27.21       27.10       26.97    
        26.83       26.68       26.51       26.33       26.13       25.90       25.64       25.34       24.97       24.49    
   6    28.09       28.09       28.08       28.06       28.04       28.02       27.98       27.95       27.90       27.85    
        27.80       27.74       27.67       27.59       27.51       27.42       27.32       27.21       27.10       26.97    
        26.83       26.68       26.51       26.33       26.13       25.90       25.64       25.34       24.97       24.49    
   7    28.09       28.09       28.08       28.06       28.04       28.02       27.98       27.95       27.90       27.85    
        27.80       27.74       27.67       27.59       27.51       27.42       27.32       27.21       27.10       26.97    
        26.83       26.68       26.51       26.33       26.13       25.90       25.64       25.34       24.97       24.49    
   8    28.09       28.09       28.08       28.06       28.04       28.02       27.98       27.95       27.90       27.85    
        27.80       27.74       27.67       27.59       27.51       27.42       27.32       27.21       27.10       26.97    
        26.83       26.68       26.51       26.33       26.13       25.90       25.64       25.34       24.97       24.49    
   9    28.09       28.09       28.08       28.06       28.04       28.02       27.98       27.95       27.90       27.85    
        27.80       27.74       27.67       27.59       27.51       27.42       27.32       27.21       27.10       26.97    
        26.83       26.68       26.51       26.33       26.13       25.90       25.64       25.34       24.97       24.49    
  10    28.09       28.09       28.08       28.06       28.04       28.02       27.98       27.95       27.90       27.85    
        27.80       27.74       27.67       27.59       27.51       27.42       27.32       27.21       27.10       26.97    
        26.83       26.68       26.51       26.33       26.13       25.90       25.64       25.34       24.97       24.49    
  11    28.09       28.09       28.08       28.06       28.04       28.02       27.98       27.95       27.90       27.85    
        27.80       27.74       27.67       27.59       27.51       27.42       27.32       27.21       27.10       26.97    
        26.83       26.68       26.51       26.33       26.13       25.90       25.64       25.34       24.97       24.49    
  12    28.09       28.09       28.08       28.06       28.04       28.02       27.98       27.95       27.90       27.85    
        27.80       27.74       27.67       27.59       27.51       27.42       27.32       27.21       27.10       26.97    
        26.83       26.68       26.51       26.33       26.13       25.90       25.64       25.34       24.97       24.49    
  13    28.09       28.09       28.08       28.06       28.04       28.02       27.98       27.95       27.90       27.85    
        27.80       27.74       27.67       27.59       27.51       27.42       27.32       27.21       27.10       26.97    
        26.83       26.68       26.51       26.33       26.13       25.90       25.64       25.34       24.97       24.49    
  14    28.09       28.09       28.08       28.06       28.04       28.02       27.98       27.95       27.90       27.85    
        27.80       27.74       27.67       27.59       27.51       27.42       27.32       27.21       27.10       26.97    
        26.83       26.68       26.51       26.33       26.13       25.90       25.64       25.34       24.97       24.49    
  15    28.09       28.09       28.08       28.06       28.04       28.02       27.98       27.95       27.90       27.85    
        27.80       27.74       27.67       27.59       27.51       27.42       27.32       27.21       27.10       26.97    
        26.83       26.68       26.51       26.33       26.13       25.90       25.64       25.34       24.97       24.49    
  16    28.09       28.09       28.08       28.06       28.04       28.02       27.98       27.95       27.90       27.85    
        27.80       27.74       27.67       27.59       27.51       27.42       27.32       27.21       27.10       26.97    
        26.83       26.68       26.51       26.33       26.13       25.90       25.64       25.34       24.97       24.49    
  17    28.09       28.09       28.08       28.06       28.04       28.02       27.98       27.95       27.90       27.85    
        27.80       27.74       27.67       27.59       27.51       27.42       27.32       27.21       27.10       26.97    
        26.83       26.68       26.51       26.33       26.13       25.90       25.64       25.34       24.97       24.49    
  18    28.09       28.09       28.08       28.06       28.04       28.02       27.98       27.95       27.90       27.85    
        27.80       27.74       27.67       27.59       27.51       27.42       27.32       27.21       27.10       26.97    
        26.83       26.68       26.51       26.33       26.13       25.90       25.64       25.34       24.97       24.49    
  19    28.09       28.09       28.08       28.06       28.04       28.02       27.98       27.95       27.90       27.85    
        27.80       27.74       27.67       27.59       27.51       27.42       27.32       27.21       27.10       26.97    
        26.83       26.68       26.51       26.33       26.13       25.90       25.64       25.34       24.97       24.49    
  20    28.09       28.09       28.08       28.06       28.04       28.02       27.98       27.95       27.90       27.85    
        27.80       27.74       27.67       27.59       27.51       27.42       27.32       27.21       27.10       26.97    
        26.83       26.68       26.51       26.33       26.13       25.90       25.64       25.34       24.97       24.49    
  21    28.09       28.09       28.08       28.06       28.04       28.02       27.98       27.95       27.90       27.85    
        27.80       27.74       27.67       27.59       27.51       27.42       27.32       27.21       27.10       26.97    
        26.83       26.68       26.51       26.33       26.13       25.90       25.64       25.34       24.97       24.49    
  22    28.09       28.09       28.08       28.06       28.04       28.02       27.98       27.95       27.90       27.85    
        27.80       27.74       27.67       27.59       27.51       27.42       27.32       27.21       27.10       26.97    
        26.83       26.68       26.51       26.33       26.13       25.90       25.64       25.34       24.97       24.49    
  23    28.09       28.09       28.08       28.06       28.04       28.02       27.98       27.95       27.90       27.85    
        27.80       27.74       27.67       27.59       27.51       27.42       27.32       27.21       27.10       26.97    
        26.83       26.68       26.51       26.33       26.13       25.90       25.64       25.34       24.97       24.49    
  24    28.09       28.09       28.08       28.06       28.04       28.02       27.98       27.95       27.90       27.85    
        27.80       27.74       27.67       27.59       27.51       27.42       27.32       27.21       27.10       26.97    
        26.83       26.68       26.51       26.33       26.13       25.90       25.64       25.34       24.97       24.49    
  25    28.09       28.09       28.08       28.06       28.04       28.02       27.98       27.95       27.90       27.85    
        27.80       27.74       27.67       27.59       27.51       27.42       27.32       27.21       27.10       26.97    
        26.83       26.68       26.51       26.33       26.13       25.90       25.64       25.34       24.97       24.49    
  26    28.09       28.09       28.08       28.06       28.04       28.02       27.98       27.95       27.90       27.85    
        27.80       27.74       27.67       27.59       27.51       27.42       27.32       27.21       27.10       26.97    
        26.83       26.68       26.51       26.33       26.13       25.90       25.64       25.34       24.97       24.49    
  27    28.09       28.09       28.08       28.06       28.04       28.02       27.98       27.95       27.90       27.85    
        27.80       27.74       27.67       27.59       27.51       27.42       27.32       27.21       27.10       26.97    
        26.83       26.68       26.51       26.33       26.13       25.90       25.64       25.34       24.97       24.49    
  28    28.09       28.09       28.08       28.06       28.04       28.02       27.98       27.95       27.90       27.85    
        27.80       27.74       27.67       27.59       27.51       27.42       27.32       27.21       27.10       26.97    
        26.83       26.68       26.51       26.33       26.13       25.90       25.64       25.34       24.97       24.49    
  29    28.09       28.09       28.08       28.06       28.04       28.02       27.98       27.95       27.90       27.85    
        27.80       27.74       27.67       27.59       27.51       27.42       27.32       27.21       27.10       26.97    
        26.83       26.68       26.51       26.33       26.13       25.90       25.64       25.34       24.97       24.49    
  30    28.09       28.09       28.08       28.06       28.04       28.02       27.98       27.95       27.90       27.85    
        27.80       27.74       27.67       27.59       27.51       27.42       27.32       27.21       27.10       26.97    
        26.83       26.68       26.51       26.33       26.13       25.90       25.64       25.34       24.97       24.49    

 HEAD WILL BE SAVED ON UNIT 1017 AT END OF TIME STEP   10, STRESS PERIOD   50


  VOLUME BUDGET FOR ENTIRE MODEL AT END OF TIME STEP   10, STRESS PERIOD  50
  ---------------------------------------------------------------------------------------------------

     CUMULATIVE VOLUME      L**3       RATES FOR THIS TIME STEP      L**3/T          PACKAGE NAME    
     ------------------                 ------------------------                     ----------------

           IN:                                      IN:
           ---                                      ---
              STO-SS =          78.4853                STO-SS =           0.0000     STORAGE         
              STO-SY =       50865.0369                STO-SY =           0.0000     STORAGE         
                 RCH =      247652.1635                   RCH =         286.0273     RCHA            
                 CHD =        4772.3889                   CHD =           0.0000     CHD             

            TOTAL IN =      303368.0746              TOTAL IN =         286.0273

          OUT:                                     OUT:
          ----                                     ----
              STO-SS =          72.1317                STO-SS =           0.1173     STORAGE         
              STO-SY =       46959.5256                STO-SY =          73.8396     STORAGE         
                 RCH =           0.0000                   RCH =           0.0000     RCHA            
                 CHD =      256336.1152                   CHD =         212.0795     CHD             

           TOTAL OUT =      303367.7724             TOTAL OUT =         286.0364

            IN - OUT =           0.3022              IN - OUT =      -9.0947E-03

 PERCENT DISCREPANCY =           0.00     PERCENT DISCREPANCY =          -0.00




         TIME SUMMARY AT END OF TIME STEP   10 IN STRESS PERIOD   50
                    SECONDS     MINUTES      HOURS       DAYS        YEARS
                    -----------------------------------------------------------
   TIME STEP LENGTH 2.59200E+05  4320.0      72.000      3.0000     8.21355E-03
 STRESS PERIOD TIME 2.59200E+06  43200.      720.00      30.000     8.21355E-02
         TOTAL TIME 1.27094E+08 2.11824E+06  35304.      1471.0      4.0274    

 OUTPUT CONTROL FOR STRESS PERIOD 51 IS REPEATED USING SETTINGS FROM A PREVIOUS STRESS PERIOD.


 STRESS PERIOD 51 IS TRANSIENT


                 RECHARGE =  0.2465750E-02
 UBDSV1 SAVING           STO-SS ON UNIT   1016 AT TIME STEP      1, STRESS PERIOD     51
 UBDSV1 SAVING           STO-SY ON UNIT   1016 AT TIME STEP      1, STRESS PERIOD     51
 UBDSV1 SAVING     FLOW-JA-FACE ON UNIT   1016 AT TIME STEP      1, STRESS PERIOD     51
 UBDSV06 SAVING              RCH IN MODEL TEST_TRANS       PACKAGE TEST_TRANS      CONNECTED TO MODEL TEST_TRANS       PACKAGE RCHA             ON UNIT   1016 AT TIME STEP      1, STRESS PERIOD     51
 UBDSV06 SAVING              CHD IN MODEL TEST_TRANS       PACKAGE TEST_TRANS      CONNECTED TO MODEL TEST_TRANS       PACKAGE CHD              ON UNIT   1016 AT TIME STEP      1, STRESS PERIOD     51
1
  HEAD IN LAYER   1 AT END OF TIME STEP   1 IN STRESS PERIOD   51
  ---------------------------------------------------------------------------

            1           2           3           4           5           6           7           8           9          10
           11          12          13          14          15          16          17          18          19          20
           21          22          23          24          25          26          27          28          29          30
 ........................................................................................................................
   1    28.10       28.09       28.08       28.07       28.04       28.02       27.99       27.95       27.90       27.85    
        27.80       27.74       27.67       27.59       27.51       27.42       27.32       27.22       27.10       26.97    
        26.83       26.68       26.52       26.34       26.14       25.93       25.69       25.43       25.17       24.93    
   2    28.10       28.09       28.08       28.07       28.04       28.02       27.99       27.95       27.90       27.85    
        27.80       27.74       27.67       27.59       27.51       27.42       27.32       27.22       27.10       26.97    
        26.83       26.68       26.52       26.34       26.14       25.93       25.69       25.43       25.17       24.93    
   3    28.10       28.09       28.08       28.07       28.04       28.02       27.99       27.95       27.90       27.85    
        27.80       27.74       27.67       27.59       27.51       27.42       27.32       27.22       27.10       26.97    
        26.83       26.68       26.52       26.34       26.14       25.93       25.69       25.43       25.17       24.93    
   4    28.10       28.09       28.08       28.07       28.04       28.02       27.99       27.95       27.90       27.85    
        27.80       27.74       27.67       27.59       27.51       27.42       27.32       27.22       27.10       26.97    
        26.83       26.68       26.52       26.34       26.14       25.93       25.69       25.43       25.17       24.93    
   5    28.10       28.09       28.08       28.07       28.04       28.02       27.99       27.95       27.90       27.85    
        27.80       27.74       27.67       27.59       27.51       27.42       27.32       27.22       27.10       26.97    
        26.83       26.68       26.52       26.34       26.14       25.93       25.69       25.43       25.17       24.93    
   6    28.10       28.09       28.08       28.07       28.04       28.02       27.99       27.95       27.90       27.85    
        27.80       27.74       27.67       27.59       27.51       27.42       27.32       27.22       27.10       26.97    
        26.83       26.68       26.52       26.34       26.14       25.93       25.69       25.43       25.17       24.93    
   7    28.10       28.09       28.08       28.07       28.04       28.02       27.99       27.95       27.90       27.85    
        27.80       27.74       27.67       27.59       27.51       27.42       27.32       27.22       27.10       26.97    
        26.83       26.68       26.52       26.34       26.14       25.93       25.69       25.43       25.17       24.93    
   8    28.10       28.09       28.08       28.07       28.04       28.02       27.99       27.95       27.90       27.85    
        27.80       27.74       27.67       27.59       27.51       27.42       27.32       27.22       27.10       26.97    
        26.83       26.68       26.52       26.34       26.14       25.93       25.69       25.43       25.17       24.93    
   9    28.10       28.09       28.08       28.07       28.04       28.02       27.99       27.95       27.90       27.85    
        27.80       27.74       27.67       27.59       27.51       27.42       27.32       27.22       27.10       26.97    
        26.83       26.68       26.52       26.34       26.14       25.93       25.69       25.43       25.17       24.93    
  10    28.10       28.09       28.08       28.07       28.04       28.02       27.99       27.95       27.90       27.85    
        27.80       27.74       27.67       27.59       27.51       27.42       27.32       27.22       27.10       26.97    
        26.83       26.68       26.52       26.34       26.14       25.93       25.69       25.43       25.17       24.93    
  11    28.10       28.09       28.08       28.07       28.04       28.02       27.99       27.95       27.90       27.85    
        27.80       27.74       27.67       27.59       27.51       27.42       27.32       27.22       27.10       26.97    
        26.83       26.68       26.52       26.34       26.14       25.93       25.69       25.43       25.17       24.93    
  12    28.10       28.09       28.08       28.07       28.04       28.02       27.99       27.95       27.90       27.85    
        27.80       27.74       27.67       27.59       27.51       27.42       27.32       27.22       27.10       26.97    
        26.83       26.68       26.52       26.34       26.14       25.93       25.69       25.43       25.17       24.93    
  13    28.10       28.09       28.08       28.07       28.04       28.02       27.99       27.95       27.90       27.85    
        27.80       27.74       27.67       27.59       27.51       27.42       27.32       27.22       27.10       26.97    
        26.83       26.68       26.52       26.34       26.14       25.93       25.69       25.43       25.17       24.93    
  14    28.10       28.09       28.08       28.07       28.04       28.02       27.99       27.95       27.90       27.85    
        27.80       27.74       27.67       27.59       27.51       27.42       27.32       27.22       27.10       26.97    
        26.83       26.68       26.52       26.34       26.14       25.93       25.69       25.43       25.17       24.93    
  15    28.10       28.09       28.08       28.07       28.04       28.02       27.99       27.95       27.90       27.85    
        27.80       27.74       27.67       27.59       27.51       27.42       27.32       27.22       27.10       26.97    
        26.83       26.68       26.52       26.34       26.14       25.93       25.69       25.43       25.17       24.93    
  16    28.10       28.09       28.08       28.07       28.04       28.02       27.99       27.95       27.90       27.85    
        27.80       27.74       27.67       27.59       27.51       27.42       27.32       27.22       27.10       26.97    
        26.83       26.68       26.52       26.34       26.14       25.93       25.69       25.43       25.17       24.93    
  17    28.10       28.09       28.08       28.07       28.04       28.02       27.99       27.95       27.90       27.85    
        27.80       27.74       27.67       27.59       27.51       27.42       27.32       27.22       27.10       26.97    
        26.83       26.68       26.52       26.34       26.14       25.93       25.69       25.43       25.17       24.93    
  18    28.10       28.09       28.08       28.07       28.04       28.02       27.99       27.95       27.90       27.85    
        27.80       27.74       27.67       27.59       27.51       27.42       27.32       27.22       27.10       26.97    
        26.83       26.68       26.52       26.34       26.14       25.93       25.69       25.43       25.17       24.93    
  19    28.10       28.09       28.08       28.07       28.04       28.02       27.99       27.95       27.90       27.85    
        27.80       27.74       27.67       27.59       27.51       27.42       27.32       27.22       27.10       26.97    
        26.83       26.68       26.52       26.34       26.14       25.93       25.69       25.43       25.17       24.93    
  20    28.10       28.09       28.08       28.07       28.04       28.02       27.99       27.95       27.90       27.85    
        27.80       27.74       27.67       27.59       27.51       27.42       27.32       27.22       27.10       26.97    
        26.83       26.68       26.52       26.34       26.14       25.93       25.69       25.43       25.17       24.93    
  21    28.10       28.09       28.08       28.07       28.04       28.02       27.99       27.95       27.90       27.85    
        27.80       27.74       27.67       27.59       27.51       27.42       27.32       27.22       27.10       26.97    
        26.83       26.68       26.52       26.34       26.14       25.93       25.69       25.43       25.17       24.93    
  22    28.10       28.09       28.08       28.07       28.04       28.02       27.99       27.95       27.90       27.85    
        27.80       27.74       27.67       27.59       27.51       27.42       27.32       27.22       27.10       26.97    
        26.83       26.68       26.52       26.34       26.14       25.93       25.69       25.43       25.17       24.93    
  23    28.10       28.09       28.08       28.07       28.04       28.02       27.99       27.95       27.90       27.85    
        27.80       27.74       27.67       27.59       27.51       27.42       27.32       27.22       27.10       26.97    
        26.83       26.68       26.52       26.34       26.14       25.93       25.69       25.43       25.17       24.93    
  24    28.10       28.09       28.08       28.07       28.04       28.02       27.99       27.95       27.90       27.85    
        27.80       27.74       27.67       27.59       27.51       27.42       27.32       27.22       27.10       26.97    
        26.83       26.68       26.52       26.34       26.14       25.93       25.69       25.43       25.17       24.93    
  25    28.10       28.09       28.08       28.07       28.04       28.02       27.99       27.95       27.90       27.85    
        27.80       27.74       27.67       27.59       27.51       27.42       27.32       27.22       27.10       26.97    
        26.83       26.68       26.52       26.34       26.14       25.93       25.69       25.43       25.17       24.93    
  26    28.10       28.09       28.08       28.07       28.04       28.02       27.99       27.95       27.90       27.85    
        27.80       27.74       27.67       27.59       27.51       27.42       27.32       27.22       27.10       26.97    
        26.83       26.68       26.52       26.34       26.14       25.93       25.69       25.43       25.17       24.93    
  27    28.10       28.09       28.08       28.07       28.04       28.02       27.99       27.95       27.90       27.85    
        27.80       27.74       27.67       27.59       27.51       27.42       27.32       27.22       27.10       26.97    
        26.83       26.68       26.52       26.34       26.14       25.93       25.69       25.43       25.17       24.93    
  28    28.10       28.09       28.08       28.07       28.04       28.02       27.99       27.95       27.90       27.85    
        27.80       27.74       27.67       27.59       27.51       27.42       27.32       27.22       27.10       26.97    
        26.83       26.68       26.52       26.34       26.14       25.93       25.69       25.43       25.17       24.93    
  29    28.10       28.09       28.08       28.07       28.04       28.02       27.99       27.95       27.90       27.85    
        27.80       27.74       27.67       27.59       27.51       27.42       27.32       27.22       27.10       26.97    
        26.83       26.68       26.52       26.34       26.14       25.93       25.69       25.43       25.17       24.93    
  30    28.10       28.09       28.08       28.07       28.04       28.02       27.99       27.95       27.90       27.85    
        27.80       27.74       27.67       27.59       27.51       27.42       27.32       27.22       27.10       26.97    
        26.83       26.68       26.52       26.34       26.14       25.93       25.69       25.43       25.17       24.93    

 HEAD WILL BE SAVED ON UNIT 1017 AT END OF TIME STEP    1, STRESS PERIOD   51



         TIME SUMMARY AT END OF TIME STEP    1 IN STRESS PERIOD   51
                    SECONDS     MINUTES      HOURS       DAYS        YEARS
                    -----------------------------------------------------------
   TIME STEP LENGTH 2.59200E+05  4320.0      72.000      3.0000     8.21355E-03
 STRESS PERIOD TIME 2.59200E+05  4320.0      72.000      3.0000     8.21355E-03
         TOTAL TIME 1.27354E+08 2.12256E+06  35376.      1474.0      4.0356    
 UBDSV1 SAVING           STO-SS ON UNIT   1016 AT TIME STEP      2, STRESS PERIOD     51
 UBDSV1 SAVING           STO-SY ON UNIT   1016 AT TIME STEP      2, STRESS PERIOD     51
 UBDSV1 SAVING     FLOW-JA-FACE ON UNIT   1016 AT TIME STEP      2, STRESS PERIOD     51
 UBDSV06 SAVING              RCH IN MODEL TEST_TRANS       PACKAGE TEST_TRANS      CONNECTED TO MODEL TEST_TRANS       PACKAGE RCHA             ON UNIT   1016 AT TIME STEP      2, STRESS PERIOD     51
 UBDSV06 SAVING              CHD IN MODEL TEST_TRANS       PACKAGE TEST_TRANS      CONNECTED TO MODEL TEST_TRANS       PACKAGE CHD              ON UNIT   1016 AT TIME STEP      2, STRESS PERIOD     51

 HEAD WILL BE SAVED ON UNIT 1017 AT END OF TIME STEP    2, STRESS PERIOD   51
 UBDSV1 SAVING           STO-SS ON UNIT   1016 AT TIME STEP      3, STRESS PERIOD     51
 UBDSV1 SAVING           STO-SY ON UNIT   1016 AT TIME STEP      3, STRESS PERIOD     51
 UBDSV1 SAVING     FLOW-JA-FACE ON UNIT   1016 AT TIME STEP      3, STRESS PERIOD     51
 UBDSV06 SAVING              RCH IN MODEL TEST_TRANS       PACKAGE TEST_TRANS      CONNECTED TO MODEL TEST_TRANS       PACKAGE RCHA             ON UNIT   1016 AT TIME STEP      3, STRESS PERIOD     51
 UBDSV06 SAVING              CHD IN MODEL TEST_TRANS       PACKAGE TEST_TRANS      CONNECTED TO MODEL TEST_TRANS       PACKAGE CHD              ON UNIT   1016 AT TIME STEP      3, STRESS PERIOD     51

 HEAD WILL BE SAVED ON UNIT 1017 AT END OF TIME STEP    3, STRESS PERIOD   51
 UBDSV1 SAVING           STO-SS ON UNIT   1016 AT TIME STEP      4, STRESS PERIOD     51
 UBDSV1 SAVING           STO-SY ON UNIT   1016 AT TIME STEP      4, STRESS PERIOD     51
 UBDSV1 SAVING     FLOW-JA-FACE ON UNIT   1016 AT TIME STEP      4, STRESS PERIOD     51
 UBDSV06 SAVING              RCH IN MODEL TEST_TRANS       PACKAGE TEST_TRANS      CONNECTED TO MODEL TEST_TRANS       PACKAGE RCHA             ON UNIT   1016 AT TIME STEP      4, STRESS PERIOD     51
 UBDSV06 SAVING              CHD IN MODEL TEST_TRANS       PACKAGE TEST_TRANS      CONNECTED TO MODEL TEST_TRANS       PACKAGE CHD              ON UNIT   1016 AT TIME STEP      4, STRESS PERIOD     51

 HEAD WILL BE SAVED ON UNIT 1017 AT END OF TIME STEP    4, STRESS PERIOD   51
 UBDSV1 SAVING           STO-SS ON UNIT   1016 AT TIME STEP      5, STRESS PERIOD     51
 UBDSV1 SAVING           STO-SY ON UNIT   1016 AT TIME STEP      5, STRESS PERIOD     51
 UBDSV1 SAVING     FLOW-JA-FACE ON UNIT   1016 AT TIME STEP      5, STRESS PERIOD     51
 UBDSV06 SAVING              RCH IN MODEL TEST_TRANS       PACKAGE TEST_TRANS      CONNECTED TO MODEL TEST_TRANS       PACKAGE RCHA             ON UNIT   1016 AT TIME STEP      5, STRESS PERIOD     51
 UBDSV06 SAVING              CHD IN MODEL TEST_TRANS       PACKAGE TEST_TRANS      CONNECTED TO MODEL TEST_TRANS       PACKAGE CHD              ON UNIT   1016 AT TIME STEP      5, STRESS PERIOD     51

 HEAD WILL BE SAVED ON UNIT 1017 AT END OF TIME STEP    5, STRESS PERIOD   51
 UBDSV1 SAVING           STO-SS ON UNIT   1016 AT TIME STEP      6, STRESS PERIOD     51
 UBDSV1 SAVING           STO-SY ON UNIT   1016 AT TIME STEP      6, STRESS PERIOD     51
 UBDSV1 SAVING     FLOW-JA-FACE ON UNIT   1016 AT TIME STEP      6, STRESS PERIOD     51
 UBDSV06 SAVING              RCH IN MODEL TEST_TRANS       PACKAGE TEST_TRANS      CONNECTED TO MODEL TEST_TRANS       PACKAGE RCHA             ON UNIT   1016 AT TIME STEP      6, STRESS PERIOD     51
 UBDSV06 SAVING              CHD IN MODEL TEST_TRANS       PACKAGE TEST_TRANS      CONNECTED TO MODEL TEST_TRANS       PACKAGE CHD              ON UNIT   1016 AT TIME STEP      6, STRESS PERIOD     51

 HEAD WILL BE SAVED ON UNIT 1017 AT END OF TIME STEP    6, STRESS PERIOD   51
 UBDSV1 SAVING           STO-SS ON UNIT   1016 AT TIME STEP      7, STRESS PERIOD     51
 UBDSV1 SAVING           STO-SY ON UNIT   1016 AT TIME STEP      7, STRESS PERIOD     51
 UBDSV1 SAVING     FLOW-JA-FACE ON UNIT   1016 AT TIME STEP      7, STRESS PERIOD     51
 UBDSV06 SAVING              RCH IN MODEL TEST_TRANS       PACKAGE TEST_TRANS      CONNECTED TO MODEL TEST_TRANS       PACKAGE RCHA             ON UNIT   1016 AT TIME STEP      7, STRESS PERIOD     51
 UBDSV06 SAVING              CHD IN MODEL TEST_TRANS       PACKAGE TEST_TRANS      CONNECTED TO MODEL TEST_TRANS       PACKAGE CHD              ON UNIT   1016 AT TIME STEP      7, STRESS PERIOD     51

 HEAD WILL BE SAVED ON UNIT 1017 AT END OF TIME STEP    7, STRESS PERIOD   51
 UBDSV1 SAVING           STO-SS ON UNIT   1016 AT TIME STEP      8, STRESS PERIOD     51
 UBDSV1 SAVING           STO-SY ON UNIT   1016 AT TIME STEP      8, STRESS PERIOD     51
 UBDSV1 SAVING     FLOW-JA-FACE ON UNIT   1016 AT TIME STEP      8, STRESS PERIOD     51
 UBDSV06 SAVING              RCH IN MODEL TEST_TRANS       PACKAGE TEST_TRANS      CONNECTED TO MODEL TEST_TRANS       PACKAGE RCHA             ON UNIT   1016 AT TIME STEP      8, STRESS PERIOD     51
 UBDSV06 SAVING              CHD IN MODEL TEST_TRANS       PACKAGE TEST_TRANS      CONNECTED TO MODEL TEST_TRANS       PACKAGE CHD              ON UNIT   1016 AT TIME STEP      8, STRESS PERIOD     51

 HEAD WILL BE SAVED ON UNIT 1017 AT END OF TIME STEP    8, STRESS PERIOD   51
 UBDSV1 SAVING           STO-SS ON UNIT   1016 AT TIME STEP      9, STRESS PERIOD     51
 UBDSV1 SAVING           STO-SY ON UNIT   1016 AT TIME STEP      9, STRESS PERIOD     51
 UBDSV1 SAVING     FLOW-JA-FACE ON UNIT   1016 AT TIME STEP      9, STRESS PERIOD     51
 UBDSV06 SAVING              RCH IN MODEL TEST_TRANS       PACKAGE TEST_TRANS      CONNECTED TO MODEL TEST_TRANS       PACKAGE RCHA             ON UNIT   1016 AT TIME STEP      9, STRESS PERIOD     51
 UBDSV06 SAVING              CHD IN MODEL TEST_TRANS       PACKAGE TEST_TRANS      CONNECTED TO MODEL TEST_TRANS       PACKAGE CHD              ON UNIT   1016 AT TIME STEP      9, STRESS PERIOD     51

 HEAD WILL BE SAVED ON UNIT 1017 AT END OF TIME STEP    9, STRESS PERIOD   51
 UBDSV1 SAVING           STO-SS ON UNIT   1016 AT TIME STEP     10, STRESS PERIOD     51
 UBDSV1 SAVING           STO-SY ON UNIT   1016 AT TIME STEP     10, STRESS PERIOD     51
 UBDSV1 SAVING     FLOW-JA-FACE ON UNIT   1016 AT TIME STEP     10, STRESS PERIOD     51
 UBDSV06 SAVING              RCH IN MODEL TEST_TRANS       PACKAGE TEST_TRANS      CONNECTED TO MODEL TEST_TRANS       PACKAGE RCHA             ON UNIT   1016 AT TIME STEP     10, STRESS PERIOD     51
 UBDSV06 SAVING              CHD IN MODEL TEST_TRANS       PACKAGE TEST_TRANS      CONNECTED TO MODEL TEST_TRANS       PACKAGE CHD              ON UNIT   1016 AT TIME STEP     10, STRESS PERIOD     51
1
  HEAD IN LAYER   1 AT END OF TIME STEP  10 IN STRESS PERIOD   51
  ---------------------------------------------------------------------------

            1           2           3           4           5           6           7           8           9          10
           11          12          13          14          15          16          17          18          19          20
           21          22          23          24          25          26          27          28          29          30
 ........................................................................................................................
   1    28.12       28.11       28.10       28.09       28.07       28.04       28.01       27.97       27.93       27.88    
        27.82       27.76       27.70       27.62       27.54       27.46       27.36       27.26       27.15       27.03    
        26.90       26.76       26.60       26.44       26.26       26.05       25.83       25.58       25.28       24.93    
   2    28.12       28.11       28.10       28.09       28.07       28.04       28.01       27.97       27.93       27.88    
        27.82       27.76       27.70       27.62       27.54       27.46       27.36       27.26       27.15       27.03    
        26.90       26.76       26.60       26.44       26.26       26.05       25.83       25.58       25.28       24.93    
   3    28.12       28.11       28.10       28.09       28.07       28.04       28.01       27.97       27.93       27.88    
        27.82       27.76       27.70       27.62       27.54       27.46       27.36       27.26       27.15       27.03    
        26.90       26.76       26.60       26.44       26.26       26.05       25.83       25.58       25.28       24.93    
   4    28.12       28.11       28.10       28.09       28.07       28.04       28.01       27.97       27.93       27.88    
        27.82       27.76       27.70       27.62       27.54       27.46       27.36       27.26       27.15       27.03    
        26.90       26.76       26.60       26.44       26.26       26.05       25.83       25.58       25.28       24.93    
   5    28.12       28.11       28.10       28.09       28.07       28.04       28.01       27.97       27.93       27.88    
        27.82       27.76       27.70       27.62       27.54       27.46       27.36       27.26       27.15       27.03    
        26.90       26.76       26.60       26.44       26.26       26.05       25.83       25.58       25.28       24.93    
   6    28.12       28.11       28.10       28.09       28.07       28.04       28.01       27.97       27.93       27.88    
        27.82       27.76       27.70       27.62       27.54       27.46       27.36       27.26       27.15       27.03    
        26.90       26.76       26.60       26.44       26.26       26.05       25.83       25.58       25.28       24.93    
   7    28.12       28.11       28.10       28.09       28.07       28.04       28.01       27.97       27.93       27.88    
        27.82       27.76       27.70       27.62       27.54       27.46       27.36       27.26       27.15       27.03    
        26.90       26.76       26.60       26.44       26.26       26.05       25.83       25.58       25.28       24.93    
   8    28.12       28.11       28.10       28.09       28.07       28.04       28.01       27.97       27.93       27.88    
        27.82       27.76       27.70       27.62       27.54       27.46       27.36       27.26       27.15       27.03    
        26.90       26.76       26.60       26.44       26.26       26.05       25.83       25.58       25.28       24.93    
   9    28.12       28.11       28.10       28.09       28.07       28.04       28.01       27.97       27.93       27.88    
        27.82       27.76       27.70       27.62       27.54       27.46       27.36       27.26       27.15       27.03    
        26.90       26.76       26.60       26.44       26.26       26.05       25.83       25.58       25.28       24.93    
  10    28.12       28.11       28.10       28.09       28.07       28.04       28.01       27.97       27.93       27.88    
        27.82       27.76       27.70       27.62       27.54       27.46       27.36       27.26       27.15       27.03    
        26.90       26.76       26.60       26.44       26.26       26.05       25.83       25.58       25.28       24.93    
  11    28.12       28.11       28.10       28.09       28.07       28.04       28.01       27.97       27.93       27.88    
        27.82       27.76       27.70       27.62       27.54       27.46       27.36       27.26       27.15       27.03    
        26.90       26.76       26.60       26.44       26.26       26.05       25.83       25.58       25.28       24.93    
  12    28.12       28.11       28.10       28.09       28.07       28.04       28.01       27.97       27.93       27.88    
        27.82       27.76       27.70       27.62       27.54       27.46       27.36       27.26       27.15       27.03    
        26.90       26.76       26.60       26.44       26.26       26.05       25.83       25.58       25.28       24.93    
  13    28.12       28.11       28.10       28.09       28.07       28.04       28.01       27.97       27.93       27.88    
        27.82       27.76       27.70       27.62       27.54       27.46       27.36       27.26       27.15       27.03    
        26.90       26.76       26.60       26.44       26.26       26.05       25.83       25.58       25.28       24.93    
  14    28.12       28.11       28.10       28.09       28.07       28.04       28.01       27.97       27.93       27.88    
        27.82       27.76       27.70       27.62       27.54       27.46       27.36       27.26       27.15       27.03    
        26.90       26.76       26.60       26.44       26.26       26.05       25.83       25.58       25.28       24.93    
  15    28.12       28.11       28.10       28.09       28.07       28.04       28.01       27.97       27.93       27.88    
        27.82       27.76       27.70       27.62       27.54       27.46       27.36       27.26       27.15       27.03    
        26.90       26.76       26.60       26.44       26.26       26.05       25.83       25.58       25.28       24.93    
  16    28.12       28.11       28.10       28.09       28.07       28.04       28.01       27.97       27.93       27.88    
        27.82       27.76       27.70       27.62       27.54       27.46       27.36       27.26       27.15       27.03    
        26.90       26.76       26.60       26.44       26.26       26.05       25.83       25.58       25.28       24.93    
  17    28.12       28.11       28.10       28.09       28.07       28.04       28.01       27.97       27.93       27.88    
        27.82       27.76       27.70       27.62       27.54       27.46       27.36       27.26       27.15       27.03    
        26.90       26.76       26.60       26.44       26.26       26.05       25.83       25.58       25.28       24.93    
  18    28.12       28.11       28.10       28.09       28.07       28.04       28.01       27.97       27.93       27.88    
        27.82       27.76       27.70       27.62       27.54       27.46       27.36       27.26       27.15       27.03    
        26.90       26.76       26.60       26.44       26.26       26.05       25.83       25.58       25.28       24.93    
  19    28.12       28.11       28.10       28.09       28.07       28.04       28.01       27.97       27.93       27.88    
        27.82       27.76       27.70       27.62       27.54       27.46       27.36       27.26       27.15       27.03    
        26.90       26.76       26.60       26.44       26.26       26.05       25.83       25.58       25.28       24.93    
  20    28.12       28.11       28.10       28.09       28.07       28.04       28.01       27.97       27.93       27.88    
        27.82       27.76       27.70       27.62       27.54       27.46       27.36       27.26       27.15       27.03    
        26.90       26.76       26.60       26.44       26.26       26.05       25.83       25.58       25.28       24.93    
  21    28.12       28.11       28.10       28.09       28.07       28.04       28.01       27.97       27.93       27.88    
        27.82       27.76       27.70       27.62       27.54       27.46       27.36       27.26       27.15       27.03    
        26.90       26.76       26.60       26.44       26.26       26.05       25.83       25.58       25.28       24.93    
  22    28.12       28.11       28.10       28.09       28.07       28.04       28.01       27.97       27.93       27.88    
        27.82       27.76       27.70       27.62       27.54       27.46       27.36       27.26       27.15       27.03    
        26.90       26.76       26.60       26.44       26.26       26.05       25.83       25.58       25.28       24.93    
  23    28.12       28.11       28.10       28.09       28.07       28.04       28.01       27.97       27.93       27.88    
        27.82       27.76       27.70       27.62       27.54       27.46       27.36       27.26       27.15       27.03    
        26.90       26.76       26.60       26.44       26.26       26.05       25.83       25.58       25.28       24.93    
  24    28.12       28.11       28.10       28.09       28.07       28.04       28.01       27.97       27.93       27.88    
        27.82       27.76       27.70       27.62       27.54       27.46       27.36       27.26       27.15       27.03    
        26.90       26.76       26.60       26.44       26.26       26.05       25.83       25.58       25.28       24.93    
  25    28.12       28.11       28.10       28.09       28.07       28.04       28.01       27.97       27.93       27.88    
        27.82       27.76       27.70       27.62       27.54       27.46       27.36       27.26       27.15       27.03    
        26.90       26.76       26.60       26.44       26.26       26.05       25.83       25.58       25.28       24.93    
  26    28.12       28.11       28.10       28.09       28.07       28.04       28.01       27.97       27.93       27.88    
        27.82       27.76       27.70       27.62       27.54       27.46       27.36       27.26       27.15       27.03    
        26.90       26.76       26.60       26.44       26.26       26.05       25.83       25.58       25.28       24.93    
  27    28.12       28.11       28.10       28.09       28.07       28.04       28.01       27.97       27.93       27.88    
        27.82       27.76       27.70       27.62       27.54       27.46       27.36       27.26       27.15       27.03    
        26.90       26.76       26.60       26.44       26.26       26.05       25.83       25.58       25.28       24.93    
  28    28.12       28.11       28.10       28.09       28.07       28.04       28.01       27.97       27.93       27.88    
        27.82       27.76       27.70       27.62       27.54       27.46       27.36       27.26       27.15       27.03    
        26.90       26.76       26.60       26.44       26.26       26.05       25.83       25.58       25.28       24.93    
  29    28.12       28.11       28.10       28.09       28.07       28.04       28.01       27.97       27.93       27.88    
        27.82       27.76       27.70       27.62       27.54       27.46       27.36       27.26       27.15       27.03    
        26.90       26.76       26.60       26.44       26.26       26.05       25.83       25.58       25.28       24.93    
  30    28.12       28.11       28.10       28.09       28.07       28.04       28.01       27.97       27.93       27.88    
        27.82       27.76       27.70       27.62       27.54       27.46       27.36       27.26       27.15       27.03    
        26.90       26.76       26.60       26.44       26.26       26.05       25.83       25.58       25.28       24.93    

 HEAD WILL BE SAVED ON UNIT 1017 AT END OF TIME STEP   10, STRESS PERIOD   51


  VOLUME BUDGET FOR ENTIRE MODEL AT END OF TIME STEP   10, STRESS PERIOD  51
  ---------------------------------------------------------------------------------------------------

     CUMULATIVE VOLUME      L**3       RATES FOR THIS TIME STEP      L**3/T          PACKAGE NAME    
     ------------------                 ------------------------                     ----------------

           IN:                                      IN:
           ---                                      ---
              STO-SS =          78.4853                STO-SS =           0.0000     STORAGE         
              STO-SY =       50865.0369                STO-SY =           0.0000     STORAGE         
                 RCH =      254087.7710                   RCH =         214.5203     RCHA            
                 CHD =        4772.3889                   CHD =           0.0000     CHD             

            TOTAL IN =      309803.6821              TOTAL IN =         214.5203

          OUT:                                     OUT:
          ----                                     ----
              STO-SS =          73.9067                STO-SS =       3.7149E-02     STORAGE         
              STO-SY =       48151.2227                STO-SY =          23.7734     STORAGE         
                 RCH =           0.0000                   RCH =           0.0000     RCHA            
                 CHD =      261578.3335                   CHD =         190.7137     CHD             

           TOTAL OUT =      309803.4629             TOTAL OUT =         214.5243

            IN - OUT =           0.2193              IN - OUT =      -4.0273E-03

 PERCENT DISCREPANCY =           0.00     PERCENT DISCREPANCY =          -0.00




         TIME SUMMARY AT END OF TIME STEP   10 IN STRESS PERIOD   51
                    SECONDS     MINUTES      HOURS       DAYS        YEARS
                    -----------------------------------------------------------
   TIME STEP LENGTH 2.59200E+05  4320.0      72.000      3.0000     8.21355E-03
 STRESS PERIOD TIME 2.59200E+06  43200.      720.00      30.000     8.21355E-02
         TOTAL TIME 1.29686E+08 2.16144E+06  36024.      1501.0      4.1095    

 OUTPUT CONTROL FOR STRESS PERIOD 52 IS REPEATED USING SETTINGS FROM A PREVIOUS STRESS PERIOD.


 STRESS PERIOD 52 IS TRANSIENT


                 RECHARGE =  0.1643840E-02
 UBDSV1 SAVING           STO-SS ON UNIT   1016 AT TIME STEP      1, STRESS PERIOD     52
 UBDSV1 SAVING           STO-SY ON UNIT   1016 AT TIME STEP      1, STRESS PERIOD     52
 UBDSV1 SAVING     FLOW-JA-FACE ON UNIT   1016 AT TIME STEP      1, STRESS PERIOD     52
 UBDSV06 SAVING              RCH IN MODEL TEST_TRANS       PACKAGE TEST_TRANS      CONNECTED TO MODEL TEST_TRANS       PACKAGE RCHA             ON UNIT   1016 AT TIME STEP      1, STRESS PERIOD     52
 UBDSV06 SAVING              CHD IN MODEL TEST_TRANS       PACKAGE TEST_TRANS      CONNECTED TO MODEL TEST_TRANS       PACKAGE CHD              ON UNIT   1016 AT TIME STEP      1, STRESS PERIOD     52
1
  HEAD IN LAYER   1 AT END OF TIME STEP   1 IN STRESS PERIOD   52
  ---------------------------------------------------------------------------

            1           2           3           4           5           6           7           8           9          10
           11          12          13          14          15          16          17          18          19          20
           21          22          23          24          25          26          27          28          29          30
 ........................................................................................................................
   1    28.11       28.10       28.09       28.08       28.06       28.03       28.00       27.96       27.92       27.87    
        27.82       27.76       27.69       27.62       27.54       27.45       27.35       27.25       27.14       27.02    
        26.89       26.75       26.60       26.43       26.25       26.06       25.84       25.60       25.34       25.05    
   2    28.11       28.10       28.09       28.08       28.06       28.03       28.00       27.96       27.92       27.87    
        27.82       27.76       27.69       27.62       27.54       27.45       27.35       27.25       27.14       27.02    
        26.89       26.75       26.60       26.43       26.25       26.06       25.84       25.60       25.34       25.05    
   3    28.11       28.10       28.09       28.08       28.06       28.03       28.00       27.96       27.92       27.87    
        27.82       27.76       27.69       27.62       27.54       27.45       27.35       27.25       27.14       27.02    
        26.89       26.75       26.60       26.43       26.25       26.06       25.84       25.60       25.34       25.05    
   4    28.11       28.10       28.09       28.08       28.06       28.03       28.00       27.96       27.92       27.87    
        27.82       27.76       27.69       27.62       27.54       27.45       27.35       27.25       27.14       27.02    
        26.89       26.75       26.60       26.43       26.25       26.06       25.84       25.60       25.34       25.05    
   5    28.11       28.10       28.09       28.08       28.06       28.03       28.00       27.96       27.92       27.87    
        27.82       27.76       27.69       27.62       27.54       27.45       27.35       27.25       27.14       27.02    
        26.89       26.75       26.60       26.43       26.25       26.06       25.84       25.60       25.34       25.05    
   6    28.11       28.10       28.09       28.08       28.06       28.03       28.00       27.96       27.92       27.87    
        27.82       27.76       27.69       27.62       27.54       27.45       27.35       27.25       27.14       27.02    
        26.89       26.75       26.60       26.43       26.25       26.06       25.84       25.60       25.34       25.05    
   7    28.11       28.10       28.09       28.08       28.06       28.03       28.00       27.96       27.92       27.87    
        27.82       27.76       27.69       27.62       27.54       27.45       27.35       27.25       27.14       27.02    
        26.89       26.75       26.60       26.43       26.25       26.06       25.84       25.60       25.34       25.05    
   8    28.11       28.10       28.09       28.08       28.06       28.03       28.00       27.96       27.92       27.87    
        27.82       27.76       27.69       27.62       27.54       27.45       27.35       27.25       27.14       27.02    
        26.89       26.75       26.60       26.43       26.25       26.06       25.84       25.60       25.34       25.05    
   9    28.11       28.10       28.09       28.08       28.06       28.03       28.00       27.96       27.92       27.87    
        27.82       27.76       27.69       27.62       27.54       27.45       27.35       27.25       27.14       27.02    
        26.89       26.75       26.60       26.43       26.25       26.06       25.84       25.60       25.34       25.05    
  10    28.11       28.10       28.09       28.08       28.06       28.03       28.00       27.96       27.92       27.87    
        27.82       27.76       27.69       27.62       27.54       27.45       27.35       27.25       27.14       27.02    
        26.89       26.75       26.60       26.43       26.25       26.06       25.84       25.60       25.34       25.05    
  11    28.11       28.10       28.09       28.08       28.06       28.03       28.00       27.96       27.92       27.87    
        27.82       27.76       27.69       27.62       27.54       27.45       27.35       27.25       27.14       27.02    
        26.89       26.75       26.60       26.43       26.25       26.06       25.84       25.60       25.34       25.05    
  12    28.11       28.10       28.09       28.08       28.06       28.03       28.00       27.96       27.92       27.87    
        27.82       27.76       27.69       27.62       27.54       27.45       27.35       27.25       27.14       27.02    
        26.89       26.75       26.60       26.43       26.25       26.06       25.84       25.60       25.34       25.05    
  13    28.11       28.10       28.09       28.08       28.06       28.03       28.00       27.96       27.92       27.87    
        27.82       27.76       27.69       27.62       27.54       27.45       27.35       27.25       27.14       27.02    
        26.89       26.75       26.60       26.43       26.25       26.06       25.84       25.60       25.34       25.05    
  14    28.11       28.10       28.09       28.08       28.06       28.03       28.00       27.96       27.92       27.87    
        27.82       27.76       27.69       27.62       27.54       27.45       27.35       27.25       27.14       27.02    
        26.89       26.75       26.60       26.43       26.25       26.06       25.84       25.60       25.34       25.05    
  15    28.11       28.10       28.09       28.08       28.06       28.03       28.00       27.96       27.92       27.87    
        27.82       27.76       27.69       27.62       27.54       27.45       27.35       27.25       27.14       27.02    
        26.89       26.75       26.60       26.43       26.25       26.06       25.84       25.60       25.34       25.05    
  16    28.11       28.10       28.09       28.08       28.06       28.03       28.00       27.96       27.92       27.87    
        27.82       27.76       27.69       27.62       27.54       27.45       27.35       27.25       27.14       27.02    
        26.89       26.75       26.60       26.43       26.25       26.06       25.84       25.60       25.34       25.05    
  17    28.11       28.10       28.09       28.08       28.06       28.03       28.00       27.96       27.92       27.87    
        27.82       27.76       27.69       27.62       27.54       27.45       27.35       27.25       27.14       27.02    
        26.89       26.75       26.60       26.43       26.25       26.06       25.84       25.60       25.34       25.05    
  18    28.11       28.10       28.09       28.08       28.06       28.03       28.00       27.96       27.92       27.87    
        27.82       27.76       27.69       27.62       27.54       27.45       27.35       27.25       27.14       27.02    
        26.89       26.75       26.60       26.43       26.25       26.06       25.84       25.60       25.34       25.05    
  19    28.11       28.10       28.09       28.08       28.06       28.03       28.00       27.96       27.92       27.87    
        27.82       27.76       27.69       27.62       27.54       27.45       27.35       27.25       27.14       27.02    
        26.89       26.75       26.60       26.43       26.25       26.06       25.84       25.60       25.34       25.05    
  20    28.11       28.10       28.09       28.08       28.06       28.03       28.00       27.96       27.92       27.87    
        27.82       27.76       27.69       27.62       27.54       27.45       27.35       27.25       27.14       27.02    
        26.89       26.75       26.60       26.43       26.25       26.06       25.84       25.60       25.34       25.05    
  21    28.11       28.10       28.09       28.08       28.06       28.03       28.00       27.96       27.92       27.87    
        27.82       27.76       27.69       27.62       27.54       27.45       27.35       27.25       27.14       27.02    
        26.89       26.75       26.60       26.43       26.25       26.06       25.84       25.60       25.34       25.05    
  22    28.11       28.10       28.09       28.08       28.06       28.03       28.00       27.96       27.92       27.87    
        27.82       27.76       27.69       27.62       27.54       27.45       27.35       27.25       27.14       27.02    
        26.89       26.75       26.60       26.43       26.25       26.06       25.84       25.60       25.34       25.05    
  23    28.11       28.10       28.09       28.08       28.06       28.03       28.00       27.96       27.92       27.87    
        27.82       27.76       27.69       27.62       27.54       27.45       27.35       27.25       27.14       27.02    
        26.89       26.75       26.60       26.43       26.25       26.06       25.84       25.60       25.34       25.05    
  24    28.11       28.10       28.09       28.08       28.06       28.03       28.00       27.96       27.92       27.87    
        27.82       27.76       27.69       27.62       27.54       27.45       27.35       27.25       27.14       27.02    
        26.89       26.75       26.60       26.43       26.25       26.06       25.84       25.60       25.34       25.05    
  25    28.11       28.10       28.09       28.08       28.06       28.03       28.00       27.96       27.92       27.87    
        27.82       27.76       27.69       27.62       27.54       27.45       27.35       27.25       27.14       27.02    
        26.89       26.75       26.60       26.43       26.25       26.06       25.84       25.60       25.34       25.05    
  26    28.11       28.10       28.09       28.08       28.06       28.03       28.00       27.96       27.92       27.87    
        27.82       27.76       27.69       27.62       27.54       27.45       27.35       27.25       27.14       27.02    
        26.89       26.75       26.60       26.43       26.25       26.06       25.84       25.60       25.34       25.05    
  27    28.11       28.10       28.09       28.08       28.06       28.03       28.00       27.96       27.92       27.87    
        27.82       27.76       27.69       27.62       27.54       27.45       27.35       27.25       27.14       27.02    
        26.89       26.75       26.60       26.43       26.25       26.06       25.84       25.60       25.34       25.05    
  28    28.11       28.10       28.09       28.08       28.06       28.03       28.00       27.96       27.92       27.87    
        27.82       27.76       27.69       27.62       27.54       27.45       27.35       27.25       27.14       27.02    
        26.89       26.75       26.60       26.43       26.25       26.06       25.84       25.60       25.34       25.05    
  29    28.11       28.10       28.09       28.08       28.06       28.03       28.00       27.96       27.92       27.87    
        27.82       27.76       27.69       27.62       27.54       27.45       27.35       27.25       27.14       27.02    
        26.89       26.75       26.60       26.43       26.25       26.06       25.84       25.60       25.34       25.05    
  30    28.11       28.10       28.09       28.08       28.06       28.03       28.00       27.96       27.92       27.87    
        27.82       27.76       27.69       27.62       27.54       27.45       27.35       27.25       27.14       27.02    
        26.89       26.75       26.60       26.43       26.25       26.06       25.84       25.60       25.34       25.05    

 HEAD WILL BE SAVED ON UNIT 1017 AT END OF TIME STEP    1, STRESS PERIOD   52



         TIME SUMMARY AT END OF TIME STEP    1 IN STRESS PERIOD   52
                    SECONDS     MINUTES      HOURS       DAYS        YEARS
                    -----------------------------------------------------------
   TIME STEP LENGTH 2.59200E+05  4320.0      72.000      3.0000     8.21355E-03
 STRESS PERIOD TIME 2.59200E+05  4320.0      72.000      3.0000     8.21355E-03
         TOTAL TIME 1.29946E+08 2.16576E+06  36096.      1504.0      4.1177    
 UBDSV1 SAVING           STO-SS ON UNIT   1016 AT TIME STEP      2, STRESS PERIOD     52
 UBDSV1 SAVING           STO-SY ON UNIT   1016 AT TIME STEP      2, STRESS PERIOD     52
 UBDSV1 SAVING     FLOW-JA-FACE ON UNIT   1016 AT TIME STEP      2, STRESS PERIOD     52
 UBDSV06 SAVING              RCH IN MODEL TEST_TRANS       PACKAGE TEST_TRANS      CONNECTED TO MODEL TEST_TRANS       PACKAGE RCHA             ON UNIT   1016 AT TIME STEP      2, STRESS PERIOD     52
 UBDSV06 SAVING              CHD IN MODEL TEST_TRANS       PACKAGE TEST_TRANS      CONNECTED TO MODEL TEST_TRANS       PACKAGE CHD              ON UNIT   1016 AT TIME STEP      2, STRESS PERIOD     52

 HEAD WILL BE SAVED ON UNIT 1017 AT END OF TIME STEP    2, STRESS PERIOD   52
 UBDSV1 SAVING           STO-SS ON UNIT   1016 AT TIME STEP      3, STRESS PERIOD     52
 UBDSV1 SAVING           STO-SY ON UNIT   1016 AT TIME STEP      3, STRESS PERIOD     52
 UBDSV1 SAVING     FLOW-JA-FACE ON UNIT   1016 AT TIME STEP      3, STRESS PERIOD     52
 UBDSV06 SAVING              RCH IN MODEL TEST_TRANS       PACKAGE TEST_TRANS      CONNECTED TO MODEL TEST_TRANS       PACKAGE RCHA             ON UNIT   1016 AT TIME STEP      3, STRESS PERIOD     52
 UBDSV06 SAVING              CHD IN MODEL TEST_TRANS       PACKAGE TEST_TRANS      CONNECTED TO MODEL TEST_TRANS       PACKAGE CHD              ON UNIT   1016 AT TIME STEP      3, STRESS PERIOD     52

 HEAD WILL BE SAVED ON UNIT 1017 AT END OF TIME STEP    3, STRESS PERIOD   52
 UBDSV1 SAVING           STO-SS ON UNIT   1016 AT TIME STEP      4, STRESS PERIOD     52
 UBDSV1 SAVING           STO-SY ON UNIT   1016 AT TIME STEP      4, STRESS PERIOD     52
 UBDSV1 SAVING     FLOW-JA-FACE ON UNIT   1016 AT TIME STEP      4, STRESS PERIOD     52
 UBDSV06 SAVING              RCH IN MODEL TEST_TRANS       PACKAGE TEST_TRANS      CONNECTED TO MODEL TEST_TRANS       PACKAGE RCHA             ON UNIT   1016 AT TIME STEP      4, STRESS PERIOD     52
 UBDSV06 SAVING              CHD IN MODEL TEST_TRANS       PACKAGE TEST_TRANS      CONNECTED TO MODEL TEST_TRANS       PACKAGE CHD              ON UNIT   1016 AT TIME STEP      4, STRESS PERIOD     52

 HEAD WILL BE SAVED ON UNIT 1017 AT END OF TIME STEP    4, STRESS PERIOD   52
 UBDSV1 SAVING           STO-SS ON UNIT   1016 AT TIME STEP      5, STRESS PERIOD     52
 UBDSV1 SAVING           STO-SY ON UNIT   1016 AT TIME STEP      5, STRESS PERIOD     52
 UBDSV1 SAVING     FLOW-JA-FACE ON UNIT   1016 AT TIME STEP      5, STRESS PERIOD     52
 UBDSV06 SAVING              RCH IN MODEL TEST_TRANS       PACKAGE TEST_TRANS      CONNECTED TO MODEL TEST_TRANS       PACKAGE RCHA             ON UNIT   1016 AT TIME STEP      5, STRESS PERIOD     52
 UBDSV06 SAVING              CHD IN MODEL TEST_TRANS       PACKAGE TEST_TRANS      CONNECTED TO MODEL TEST_TRANS       PACKAGE CHD              ON UNIT   1016 AT TIME STEP      5, STRESS PERIOD     52

 HEAD WILL BE SAVED ON UNIT 1017 AT END OF TIME STEP    5, STRESS PERIOD   52
 UBDSV1 SAVING           STO-SS ON UNIT   1016 AT TIME STEP      6, STRESS PERIOD     52
 UBDSV1 SAVING           STO-SY ON UNIT   1016 AT TIME STEP      6, STRESS PERIOD     52
 UBDSV1 SAVING     FLOW-JA-FACE ON UNIT   1016 AT TIME STEP      6, STRESS PERIOD     52
 UBDSV06 SAVING              RCH IN MODEL TEST_TRANS       PACKAGE TEST_TRANS      CONNECTED TO MODEL TEST_TRANS       PACKAGE RCHA             ON UNIT   1016 AT TIME STEP      6, STRESS PERIOD     52
 UBDSV06 SAVING              CHD IN MODEL TEST_TRANS       PACKAGE TEST_TRANS      CONNECTED TO MODEL TEST_TRANS       PACKAGE CHD              ON UNIT   1016 AT TIME STEP      6, STRESS PERIOD     52

 HEAD WILL BE SAVED ON UNIT 1017 AT END OF TIME STEP    6, STRESS PERIOD   52
 UBDSV1 SAVING           STO-SS ON UNIT   1016 AT TIME STEP      7, STRESS PERIOD     52
 UBDSV1 SAVING           STO-SY ON UNIT   1016 AT TIME STEP      7, STRESS PERIOD     52
 UBDSV1 SAVING     FLOW-JA-FACE ON UNIT   1016 AT TIME STEP      7, STRESS PERIOD     52
 UBDSV06 SAVING              RCH IN MODEL TEST_TRANS       PACKAGE TEST_TRANS      CONNECTED TO MODEL TEST_TRANS       PACKAGE RCHA             ON UNIT   1016 AT TIME STEP      7, STRESS PERIOD     52
 UBDSV06 SAVING              CHD IN MODEL TEST_TRANS       PACKAGE TEST_TRANS      CONNECTED TO MODEL TEST_TRANS       PACKAGE CHD              ON UNIT   1016 AT TIME STEP      7, STRESS PERIOD     52

 HEAD WILL BE SAVED ON UNIT 1017 AT END OF TIME STEP    7, STRESS PERIOD   52
 UBDSV1 SAVING           STO-SS ON UNIT   1016 AT TIME STEP      8, STRESS PERIOD     52
 UBDSV1 SAVING           STO-SY ON UNIT   1016 AT TIME STEP      8, STRESS PERIOD     52
 UBDSV1 SAVING     FLOW-JA-FACE ON UNIT   1016 AT TIME STEP      8, STRESS PERIOD     52
 UBDSV06 SAVING              RCH IN MODEL TEST_TRANS       PACKAGE TEST_TRANS      CONNECTED TO MODEL TEST_TRANS       PACKAGE RCHA             ON UNIT   1016 AT TIME STEP      8, STRESS PERIOD     52
 UBDSV06 SAVING              CHD IN MODEL TEST_TRANS       PACKAGE TEST_TRANS      CONNECTED TO MODEL TEST_TRANS       PACKAGE CHD              ON UNIT   1016 AT TIME STEP      8, STRESS PERIOD     52

 HEAD WILL BE SAVED ON UNIT 1017 AT END OF TIME STEP    8, STRESS PERIOD   52
 UBDSV1 SAVING           STO-SS ON UNIT   1016 AT TIME STEP      9, STRESS PERIOD     52
 UBDSV1 SAVING           STO-SY ON UNIT   1016 AT TIME STEP      9, STRESS PERIOD     52
 UBDSV1 SAVING     FLOW-JA-FACE ON UNIT   1016 AT TIME STEP      9, STRESS PERIOD     52
 UBDSV06 SAVING              RCH IN MODEL TEST_TRANS       PACKAGE TEST_TRANS      CONNECTED TO MODEL TEST_TRANS       PACKAGE RCHA             ON UNIT   1016 AT TIME STEP      9, STRESS PERIOD     52
 UBDSV06 SAVING              CHD IN MODEL TEST_TRANS       PACKAGE TEST_TRANS      CONNECTED TO MODEL TEST_TRANS       PACKAGE CHD              ON UNIT   1016 AT TIME STEP      9, STRESS PERIOD     52

 HEAD WILL BE SAVED ON UNIT 1017 AT END OF TIME STEP    9, STRESS PERIOD   52
 UBDSV1 SAVING           STO-SS ON UNIT   1016 AT TIME STEP     10, STRESS PERIOD     52
 UBDSV1 SAVING           STO-SY ON UNIT   1016 AT TIME STEP     10, STRESS PERIOD     52
 UBDSV1 SAVING     FLOW-JA-FACE ON UNIT   1016 AT TIME STEP     10, STRESS PERIOD     52
 UBDSV06 SAVING              RCH IN MODEL TEST_TRANS       PACKAGE TEST_TRANS      CONNECTED TO MODEL TEST_TRANS       PACKAGE RCHA             ON UNIT   1016 AT TIME STEP     10, STRESS PERIOD     52
 UBDSV06 SAVING              CHD IN MODEL TEST_TRANS       PACKAGE TEST_TRANS      CONNECTED TO MODEL TEST_TRANS       PACKAGE CHD              ON UNIT   1016 AT TIME STEP     10, STRESS PERIOD     52
1
  HEAD IN LAYER   1 AT END OF TIME STEP  10 IN STRESS PERIOD   52
  ---------------------------------------------------------------------------

            1           2           3           4           5           6           7           8           9          10
           11          12          13          14          15          16          17          18          19          20
           21          22          23          24          25          26          27          28          29          30
 ........................................................................................................................
   1    28.03       28.02       28.01       28.00       27.98       27.95       27.92       27.89       27.84       27.80    
        27.74       27.69       27.62       27.55       27.47       27.39       27.30       27.20       27.09       26.98    
        26.86       26.72       26.58       26.42       26.25       26.06       25.85       25.62       25.35       25.05    
   2    28.03       28.02       28.01       28.00       27.98       27.95       27.92       27.89       27.84       27.80    
        27.74       27.69       27.62       27.55       27.47       27.39       27.30       27.20       27.09       26.98    
        26.86       26.72       26.58       26.42       26.25       26.06       25.85       25.62       25.35       25.05    
   3    28.03       28.02       28.01       28.00       27.98       27.95       27.92       27.89       27.84       27.80    
        27.74       27.69       27.62       27.55       27.47       27.39       27.30       27.20       27.09       26.98    
        26.86       26.72       26.58       26.42       26.25       26.06       25.85       25.62       25.35       25.05    
   4    28.03       28.02       28.01       28.00       27.98       27.95       27.92       27.89       27.84       27.80    
        27.74       27.69       27.62       27.55       27.47       27.39       27.30       27.20       27.09       26.98    
        26.86       26.72       26.58       26.42       26.25       26.06       25.85       25.62       25.35       25.05    
   5    28.03       28.02       28.01       28.00       27.98       27.95       27.92       27.89       27.84       27.80    
        27.74       27.69       27.62       27.55       27.47       27.39       27.30       27.20       27.09       26.98    
        26.86       26.72       26.58       26.42       26.25       26.06       25.85       25.62       25.35       25.05    
   6    28.03       28.02       28.01       28.00       27.98       27.95       27.92       27.89       27.84       27.80    
        27.74       27.69       27.62       27.55       27.47       27.39       27.30       27.20       27.09       26.98    
        26.86       26.72       26.58       26.42       26.25       26.06       25.85       25.62       25.35       25.05    
   7    28.03       28.02       28.01       28.00       27.98       27.95       27.92       27.89       27.84       27.80    
        27.74       27.69       27.62       27.55       27.47       27.39       27.30       27.20       27.09       26.98    
        26.86       26.72       26.58       26.42       26.25       26.06       25.85       25.62       25.35       25.05    
   8    28.03       28.02       28.01       28.00       27.98       27.95       27.92       27.89       27.84       27.80    
        27.74       27.69       27.62       27.55       27.47       27.39       27.30       27.20       27.09       26.98    
        26.86       26.72       26.58       26.42       26.25       26.06       25.85       25.62       25.35       25.05    
   9    28.03       28.02       28.01       28.00       27.98       27.95       27.92       27.89       27.84       27.80    
        27.74       27.69       27.62       27.55       27.47       27.39       27.30       27.20       27.09       26.98    
        26.86       26.72       26.58       26.42       26.25       26.06       25.85       25.62       25.35       25.05    
  10    28.03       28.02       28.01       28.00       27.98       27.95       27.92       27.89       27.84       27.80    
        27.74       27.69       27.62       27.55       27.47       27.39       27.30       27.20       27.09       26.98    
        26.86       26.72       26.58       26.42       26.25       26.06       25.85       25.62       25.35       25.05    
  11    28.03       28.02       28.01       28.00       27.98       27.95       27.92       27.89       27.84       27.80    
        27.74       27.69       27.62       27.55       27.47       27.39       27.30       27.20       27.09       26.98    
        26.86       26.72       26.58       26.42       26.25       26.06       25.85       25.62       25.35       25.05    
  12    28.03       28.02       28.01       28.00       27.98       27.95       27.92       27.89       27.84       27.80    
        27.74       27.69       27.62       27.55       27.47       27.39       27.30       27.20       27.09       26.98    
        26.86       26.72       26.58       26.42       26.25       26.06       25.85       25.62       25.35       25.05    
  13    28.03       28.02       28.01       28.00       27.98       27.95       27.92       27.89       27.84       27.80    
        27.74       27.69       27.62       27.55       27.47       27.39       27.30       27.20       27.09       26.98    
        26.86       26.72       26.58       26.42       26.25       26.06       25.85       25.62       25.35       25.05    
  14    28.03       28.02       28.01       28.00       27.98       27.95       27.92       27.89       27.84       27.80    
        27.74       27.69       27.62       27.55       27.47       27.39       27.30       27.20       27.09       26.98    
        26.86       26.72       26.58       26.42       26.25       26.06       25.85       25.62       25.35       25.05    
  15    28.03       28.02       28.01       28.00       27.98       27.95       27.92       27.89       27.84       27.80    
        27.74       27.69       27.62       27.55       27.47       27.39       27.30       27.20       27.09       26.98    
        26.86       26.72       26.58       26.42       26.25       26.06       25.85       25.62       25.35       25.05    
  16    28.03       28.02       28.01       28.00       27.98       27.95       27.92       27.89       27.84       27.80    
        27.74       27.69       27.62       27.55       27.47       27.39       27.30       27.20       27.09       26.98    
        26.86       26.72       26.58       26.42       26.25       26.06       25.85       25.62       25.35       25.05    
  17    28.03       28.02       28.01       28.00       27.98       27.95       27.92       27.89       27.84       27.80    
        27.74       27.69       27.62       27.55       27.47       27.39       27.30       27.20       27.09       26.98    
        26.86       26.72       26.58       26.42       26.25       26.06       25.85       25.62       25.35       25.05    
  18    28.03       28.02       28.01       28.00       27.98       27.95       27.92       27.89       27.84       27.80    
        27.74       27.69       27.62       27.55       27.47       27.39       27.30       27.20       27.09       26.98    
        26.86       26.72       26.58       26.42       26.25       26.06       25.85       25.62       25.35       25.05    
  19    28.03       28.02       28.01       28.00       27.98       27.95       27.92       27.89       27.84       27.80    
        27.74       27.69       27.62       27.55       27.47       27.39       27.30       27.20       27.09       26.98    
        26.86       26.72       26.58       26.42       26.25       26.06       25.85       25.62       25.35       25.05    
  20    28.03       28.02       28.01       28.00       27.98       27.95       27.92       27.89       27.84       27.80    
        27.74       27.69       27.62       27.55       27.47       27.39       27.30       27.20       27.09       26.98    
        26.86       26.72       26.58       26.42       26.25       26.06       25.85       25.62       25.35       25.05    
  21    28.03       28.02       28.01       28.00       27.98       27.95       27.92       27.89       27.84       27.80    
        27.74       27.69       27.62       27.55       27.47       27.39       27.30       27.20       27.09       26.98    
        26.86       26.72       26.58       26.42       26.25       26.06       25.85       25.62       25.35       25.05    
  22    28.03       28.02       28.01       28.00       27.98       27.95       27.92       27.89       27.84       27.80    
        27.74       27.69       27.62       27.55       27.47       27.39       27.30       27.20       27.09       26.98    
        26.86       26.72       26.58       26.42       26.25       26.06       25.85       25.62       25.35       25.05    
  23    28.03       28.02       28.01       28.00       27.98       27.95       27.92       27.89       27.84       27.80    
        27.74       27.69       27.62       27.55       27.47       27.39       27.30       27.20       27.09       26.98    
        26.86       26.72       26.58       26.42       26.25       26.06       25.85       25.62       25.35       25.05    
  24    28.03       28.02       28.01       28.00       27.98       27.95       27.92       27.89       27.84       27.80    
        27.74       27.69       27.62       27.55       27.47       27.39       27.30       27.20       27.09       26.98    
        26.86       26.72       26.58       26.42       26.25       26.06       25.85       25.62       25.35       25.05    
  25    28.03       28.02       28.01       28.00       27.98       27.95       27.92       27.89       27.84       27.80    
        27.74       27.69       27.62       27.55       27.47       27.39       27.30       27.20       27.09       26.98    
        26.86       26.72       26.58       26.42       26.25       26.06       25.85       25.62       25.35       25.05    
  26    28.03       28.02       28.01       28.00       27.98       27.95       27.92       27.89       27.84       27.80    
        27.74       27.69       27.62       27.55       27.47       27.39       27.30       27.20       27.09       26.98    
        26.86       26.72       26.58       26.42       26.25       26.06       25.85       25.62       25.35       25.05    
  27    28.03       28.02       28.01       28.00       27.98       27.95       27.92       27.89       27.84       27.80    
        27.74       27.69       27.62       27.55       27.47       27.39       27.30       27.20       27.09       26.98    
        26.86       26.72       26.58       26.42       26.25       26.06       25.85       25.62       25.35       25.05    
  28    28.03       28.02       28.01       28.00       27.98       27.95       27.92       27.89       27.84       27.80    
        27.74       27.69       27.62       27.55       27.47       27.39       27.30       27.20       27.09       26.98    
        26.86       26.72       26.58       26.42       26.25       26.06       25.85       25.62       25.35       25.05    
  29    28.03       28.02       28.01       28.00       27.98       27.95       27.92       27.89       27.84       27.80    
        27.74       27.69       27.62       27.55       27.47       27.39       27.30       27.20       27.09       26.98    
        26.86       26.72       26.58       26.42       26.25       26.06       25.85       25.62       25.35       25.05    
  30    28.03       28.02       28.01       28.00       27.98       27.95       27.92       27.89       27.84       27.80    
        27.74       27.69       27.62       27.55       27.47       27.39       27.30       27.20       27.09       26.98    
        26.86       26.72       26.58       26.42       26.25       26.06       25.85       25.62       25.35       25.05    

 HEAD WILL BE SAVED ON UNIT 1017 AT END OF TIME STEP   10, STRESS PERIOD   52


  VOLUME BUDGET FOR ENTIRE MODEL AT END OF TIME STEP   10, STRESS PERIOD  52
  ---------------------------------------------------------------------------------------------------

     CUMULATIVE VOLUME      L**3       RATES FOR THIS TIME STEP      L**3/T          PACKAGE NAME    
     ------------------                 ------------------------                     ----------------

           IN:                                      IN:
           ---                                      ---
              STO-SS =          80.1078                STO-SS =       5.0602E-02     STORAGE         
              STO-SY =       51869.1428                STO-SY =          31.5027     STORAGE         
                 RCH =      258378.1934                   RCH =         143.0141     RCHA            
                 CHD =        4772.3889                   CHD =           0.0000     CHD             

            TOTAL IN =      315099.8329              TOTAL IN =         174.5674

          OUT:                                     OUT:
          ----                                     ----
              STO-SS =          74.0339                STO-SS =           0.0000     STORAGE         
              STO-SY =       48241.8297                STO-SY =           0.0000     STORAGE         
                 RCH =           0.0000                   RCH =           0.0000     RCHA            
                 CHD =      266783.4216                   CHD =         174.5435     CHD             

           TOTAL OUT =      315099.2852             TOTAL OUT =         174.5435

            IN - OUT =           0.5477              IN - OUT =       2.3895E-02

 PERCENT DISCREPANCY =           0.00     PERCENT DISCREPANCY =           0.01




         TIME SUMMARY AT END OF TIME STEP   10 IN STRESS PERIOD   52
                    SECONDS     MINUTES      HOURS       DAYS        YEARS
                    -----------------------------------------------------------
   TIME STEP LENGTH 2.59200E+05  4320.0      72.000      3.0000     8.21355E-03
 STRESS PERIOD TIME 2.59200E+06  43200.      720.00      30.000     8.21355E-02
         TOTAL TIME 1.32278E+08 2.20464E+06  36744.      1531.0      4.1916    

 OUTPUT CONTROL FOR STRESS PERIOD 53 IS REPEATED USING SETTINGS FROM A PREVIOUS STRESS PERIOD.


 STRESS PERIOD 53 IS TRANSIENT


                 RECHARGE =  0.1232880E-02
 UBDSV1 SAVING           STO-SS ON UNIT   1016 AT TIME STEP      1, STRESS PERIOD     53
 UBDSV1 SAVING           STO-SY ON UNIT   1016 AT TIME STEP      1, STRESS PERIOD     53
 UBDSV1 SAVING     FLOW-JA-FACE ON UNIT   1016 AT TIME STEP      1, STRESS PERIOD     53
 UBDSV06 SAVING              RCH IN MODEL TEST_TRANS       PACKAGE TEST_TRANS      CONNECTED TO MODEL TEST_TRANS       PACKAGE RCHA             ON UNIT   1016 AT TIME STEP      1, STRESS PERIOD     53
 UBDSV06 SAVING              CHD IN MODEL TEST_TRANS       PACKAGE TEST_TRANS      CONNECTED TO MODEL TEST_TRANS       PACKAGE CHD              ON UNIT   1016 AT TIME STEP      1, STRESS PERIOD     53
1
  HEAD IN LAYER   1 AT END OF TIME STEP   1 IN STRESS PERIOD   53
  ---------------------------------------------------------------------------

            1           2           3           4           5           6           7           8           9          10
           11          12          13          14          15          16          17          18          19          20
           21          22          23          24          25          26          27          28          29          30
 ........................................................................................................................
   1    28.01       28.01       28.00       27.98       27.96       27.94       27.91       27.87       27.83       27.78    
        27.73       27.67       27.61       27.54       27.46       27.38       27.29       27.19       27.08       26.97    
        26.85       26.71       26.57       26.41       26.24       26.06       25.86       25.63       25.39       25.13    
   2    28.01       28.01       28.00       27.98       27.96       27.94       27.91       27.87       27.83       27.78    
        27.73       27.67       27.61       27.54       27.46       27.38       27.29       27.19       27.08       26.97    
        26.85       26.71       26.57       26.41       26.24       26.06       25.86       25.63       25.39       25.13    
   3    28.01       28.01       28.00       27.98       27.96       27.94       27.91       27.87       27.83       27.78    
        27.73       27.67       27.61       27.54       27.46       27.38       27.29       27.19       27.08       26.97    
        26.85       26.71       26.57       26.41       26.24       26.06       25.86       25.63       25.39       25.13    
   4    28.01       28.01       28.00       27.98       27.96       27.94       27.91       27.87       27.83       27.78    
        27.73       27.67       27.61       27.54       27.46       27.38       27.29       27.19       27.08       26.97    
        26.85       26.71       26.57       26.41       26.24       26.06       25.86       25.63       25.39       25.13    
   5    28.01       28.01       28.00       27.98       27.96       27.94       27.91       27.87       27.83       27.78    
        27.73       27.67       27.61       27.54       27.46       27.38       27.29       27.19       27.08       26.97    
        26.85       26.71       26.57       26.41       26.24       26.06       25.86       25.63       25.39       25.13    
   6    28.01       28.01       28.00       27.98       27.96       27.94       27.91       27.87       27.83       27.78    
        27.73       27.67       27.61       27.54       27.46       27.38       27.29       27.19       27.08       26.97    
        26.85       26.71       26.57       26.41       26.24       26.06       25.86       25.63       25.39       25.13    
   7    28.01       28.01       28.00       27.98       27.96       27.94       27.91       27.87       27.83       27.78    
        27.73       27.67       27.61       27.54       27.46       27.38       27.29       27.19       27.08       26.97    
        26.85       26.71       26.57       26.41       26.24       26.06       25.86       25.63       25.39       25.13    
   8    28.01       28.01       28.00       27.98       27.96       27.94       27.91       27.87       27.83       27.78    
        27.73       27.67       27.61       27.54       27.46       27.38       27.29       27.19       27.08       26.97    
        26.85       26.71       26.57       26.41       26.24       26.06       25.86       25.63       25.39       25.13    
   9    28.01       28.01       28.00       27.98       27.96       27.94       27.91       27.87       27.83       27.78    
        27.73       27.67       27.61       27.54       27.46       27.38       27.29       27.19       27.08       26.97    
        26.85       26.71       26.57       26.41       26.24       26.06       25.86       25.63       25.39       25.13    
  10    28.01       28.01       28.00       27.98       27.96       27.94       27.91       27.87       27.83       27.78    
        27.73       27.67       27.61       27.54       27.46       27.38       27.29       27.19       27.08       26.97    
        26.85       26.71       26.57       26.41       26.24       26.06       25.86       25.63       25.39       25.13    
  11    28.01       28.01       28.00       27.98       27.96       27.94       27.91       27.87       27.83       27.78    
        27.73       27.67       27.61       27.54       27.46       27.38       27.29       27.19       27.08       26.97    
        26.85       26.71       26.57       26.41       26.24       26.06       25.86       25.63       25.39       25.13    
  12    28.01       28.01       28.00       27.98       27.96       27.94       27.91       27.87       27.83       27.78    
        27.73       27.67       27.61       27.54       27.46       27.38       27.29       27.19       27.08       26.97    
        26.85       26.71       26.57       26.41       26.24       26.06       25.86       25.63       25.39       25.13    
  13    28.01       28.01       28.00       27.98       27.96       27.94       27.91       27.87       27.83       27.78    
        27.73       27.67       27.61       27.54       27.46       27.38       27.29       27.19       27.08       26.97    
        26.85       26.71       26.57       26.41       26.24       26.06       25.86       25.63       25.39       25.13    
  14    28.01       28.01       28.00       27.98       27.96       27.94       27.91       27.87       27.83       27.78    
        27.73       27.67       27.61       27.54       27.46       27.38       27.29       27.19       27.08       26.97    
        26.85       26.71       26.57       26.41       26.24       26.06       25.86       25.63       25.39       25.13    
  15    28.01       28.01       28.00       27.98       27.96       27.94       27.91       27.87       27.83       27.78    
        27.73       27.67       27.61       27.54       27.46       27.38       27.29       27.19       27.08       26.97    
        26.85       26.71       26.57       26.41       26.24       26.06       25.86       25.63       25.39       25.13    
  16    28.01       28.01       28.00       27.98       27.96       27.94       27.91       27.87       27.83       27.78    
        27.73       27.67       27.61       27.54       27.46       27.38       27.29       27.19       27.08       26.97    
        26.85       26.71       26.57       26.41       26.24       26.06       25.86       25.63       25.39       25.13    
  17    28.01       28.01       28.00       27.98       27.96       27.94       27.91       27.87       27.83       27.78    
        27.73       27.67       27.61       27.54       27.46       27.38       27.29       27.19       27.08       26.97    
        26.85       26.71       26.57       26.41       26.24       26.06       25.86       25.63       25.39       25.13    
  18    28.01       28.01       28.00       27.98       27.96       27.94       27.91       27.87       27.83       27.78    
        27.73       27.67       27.61       27.54       27.46       27.38       27.29       27.19       27.08       26.97    
        26.85       26.71       26.57       26.41       26.24       26.06       25.86       25.63       25.39       25.13    
  19    28.01       28.01       28.00       27.98       27.96       27.94       27.91       27.87       27.83       27.78    
        27.73       27.67       27.61       27.54       27.46       27.38       27.29       27.19       27.08       26.97    
        26.85       26.71       26.57       26.41       26.24       26.06       25.86       25.63       25.39       25.13    
  20    28.01       28.01       28.00       27.98       27.96       27.94       27.91       27.87       27.83       27.78    
        27.73       27.67       27.61       27.54       27.46       27.38       27.29       27.19       27.08       26.97    
        26.85       26.71       26.57       26.41       26.24       26.06       25.86       25.63       25.39       25.13    
  21    28.01       28.01       28.00       27.98       27.96       27.94       27.91       27.87       27.83       27.78    
        27.73       27.67       27.61       27.54       27.46       27.38       27.29       27.19       27.08       26.97    
        26.85       26.71       26.57       26.41       26.24       26.06       25.86       25.63       25.39       25.13    
  22    28.01       28.01       28.00       27.98       27.96       27.94       27.91       27.87       27.83       27.78    
        27.73       27.67       27.61       27.54       27.46       27.38       27.29       27.19       27.08       26.97    
        26.85       26.71       26.57       26.41       26.24       26.06       25.86       25.63       25.39       25.13    
  23    28.01       28.01       28.00       27.98       27.96       27.94       27.91       27.87       27.83       27.78    
        27.73       27.67       27.61       27.54       27.46       27.38       27.29       27.19       27.08       26.97    
        26.85       26.71       26.57       26.41       26.24       26.06       25.86       25.63       25.39       25.13    
  24    28.01       28.01       28.00       27.98       27.96       27.94       27.91       27.87       27.83       27.78    
        27.73       27.67       27.61       27.54       27.46       27.38       27.29       27.19       27.08       26.97    
        26.85       26.71       26.57       26.41       26.24       26.06       25.86       25.63       25.39       25.13    
  25    28.01       28.01       28.00       27.98       27.96       27.94       27.91       27.87       27.83       27.78    
        27.73       27.67       27.61       27.54       27.46       27.38       27.29       27.19       27.08       26.97    
        26.85       26.71       26.57       26.41       26.24       26.06       25.86       25.63       25.39       25.13    
  26    28.01       28.01       28.00       27.98       27.96       27.94       27.91       27.87       27.83       27.78    
        27.73       27.67       27.61       27.54       27.46       27.38       27.29       27.19       27.08       26.97    
        26.85       26.71       26.57       26.41       26.24       26.06       25.86       25.63       25.39       25.13    
  27    28.01       28.01       28.00       27.98       27.96       27.94       27.91       27.87       27.83       27.78    
        27.73       27.67       27.61       27.54       27.46       27.38       27.29       27.19       27.08       26.97    
        26.85       26.71       26.57       26.41       26.24       26.06       25.86       25.63       25.39       25.13    
  28    28.01       28.01       28.00       27.98       27.96       27.94       27.91       27.87       27.83       27.78    
        27.73       27.67       27.61       27.54       27.46       27.38       27.29       27.19       27.08       26.97    
        26.85       26.71       26.57       26.41       26.24       26.06       25.86       25.63       25.39       25.13    
  29    28.01       28.01       28.00       27.98       27.96       27.94       27.91       27.87       27.83       27.78    
        27.73       27.67       27.61       27.54       27.46       27.38       27.29       27.19       27.08       26.97    
        26.85       26.71       26.57       26.41       26.24       26.06       25.86       25.63       25.39       25.13    
  30    28.01       28.01       28.00       27.98       27.96       27.94       27.91       27.87       27.83       27.78    
        27.73       27.67       27.61       27.54       27.46       27.38       27.29       27.19       27.08       26.97    
        26.85       26.71       26.57       26.41       26.24       26.06       25.86       25.63       25.39       25.13    

 HEAD WILL BE SAVED ON UNIT 1017 AT END OF TIME STEP    1, STRESS PERIOD   53



         TIME SUMMARY AT END OF TIME STEP    1 IN STRESS PERIOD   53
                    SECONDS     MINUTES      HOURS       DAYS        YEARS
                    -----------------------------------------------------------
   TIME STEP LENGTH 2.59200E+05  4320.0      72.000      3.0000     8.21355E-03
 STRESS PERIOD TIME 2.59200E+05  4320.0      72.000      3.0000     8.21355E-03
         TOTAL TIME 1.32538E+08 2.20896E+06  36816.      1534.0      4.1999    
 UBDSV1 SAVING           STO-SS ON UNIT   1016 AT TIME STEP      2, STRESS PERIOD     53
 UBDSV1 SAVING           STO-SY ON UNIT   1016 AT TIME STEP      2, STRESS PERIOD     53
 UBDSV1 SAVING     FLOW-JA-FACE ON UNIT   1016 AT TIME STEP      2, STRESS PERIOD     53
 UBDSV06 SAVING              RCH IN MODEL TEST_TRANS       PACKAGE TEST_TRANS      CONNECTED TO MODEL TEST_TRANS       PACKAGE RCHA             ON UNIT   1016 AT TIME STEP      2, STRESS PERIOD     53
 UBDSV06 SAVING              CHD IN MODEL TEST_TRANS       PACKAGE TEST_TRANS      CONNECTED TO MODEL TEST_TRANS       PACKAGE CHD              ON UNIT   1016 AT TIME STEP      2, STRESS PERIOD     53

 HEAD WILL BE SAVED ON UNIT 1017 AT END OF TIME STEP    2, STRESS PERIOD   53
 UBDSV1 SAVING           STO-SS ON UNIT   1016 AT TIME STEP      3, STRESS PERIOD     53
 UBDSV1 SAVING           STO-SY ON UNIT   1016 AT TIME STEP      3, STRESS PERIOD     53
 UBDSV1 SAVING     FLOW-JA-FACE ON UNIT   1016 AT TIME STEP      3, STRESS PERIOD     53
 UBDSV06 SAVING              RCH IN MODEL TEST_TRANS       PACKAGE TEST_TRANS      CONNECTED TO MODEL TEST_TRANS       PACKAGE RCHA             ON UNIT   1016 AT TIME STEP      3, STRESS PERIOD     53
 UBDSV06 SAVING              CHD IN MODEL TEST_TRANS       PACKAGE TEST_TRANS      CONNECTED TO MODEL TEST_TRANS       PACKAGE CHD              ON UNIT   1016 AT TIME STEP      3, STRESS PERIOD     53

 HEAD WILL BE SAVED ON UNIT 1017 AT END OF TIME STEP    3, STRESS PERIOD   53
 UBDSV1 SAVING           STO-SS ON UNIT   1016 AT TIME STEP      4, STRESS PERIOD     53
 UBDSV1 SAVING           STO-SY ON UNIT   1016 AT TIME STEP      4, STRESS PERIOD     53
 UBDSV1 SAVING     FLOW-JA-FACE ON UNIT   1016 AT TIME STEP      4, STRESS PERIOD     53
 UBDSV06 SAVING              RCH IN MODEL TEST_TRANS       PACKAGE TEST_TRANS      CONNECTED TO MODEL TEST_TRANS       PACKAGE RCHA             ON UNIT   1016 AT TIME STEP      4, STRESS PERIOD     53
 UBDSV06 SAVING              CHD IN MODEL TEST_TRANS       PACKAGE TEST_TRANS      CONNECTED TO MODEL TEST_TRANS       PACKAGE CHD              ON UNIT   1016 AT TIME STEP      4, STRESS PERIOD     53

 HEAD WILL BE SAVED ON UNIT 1017 AT END OF TIME STEP    4, STRESS PERIOD   53
 UBDSV1 SAVING           STO-SS ON UNIT   1016 AT TIME STEP      5, STRESS PERIOD     53
 UBDSV1 SAVING           STO-SY ON UNIT   1016 AT TIME STEP      5, STRESS PERIOD     53
 UBDSV1 SAVING     FLOW-JA-FACE ON UNIT   1016 AT TIME STEP      5, STRESS PERIOD     53
 UBDSV06 SAVING              RCH IN MODEL TEST_TRANS       PACKAGE TEST_TRANS      CONNECTED TO MODEL TEST_TRANS       PACKAGE RCHA             ON UNIT   1016 AT TIME STEP      5, STRESS PERIOD     53
 UBDSV06 SAVING              CHD IN MODEL TEST_TRANS       PACKAGE TEST_TRANS      CONNECTED TO MODEL TEST_TRANS       PACKAGE CHD              ON UNIT   1016 AT TIME STEP      5, STRESS PERIOD     53

 HEAD WILL BE SAVED ON UNIT 1017 AT END OF TIME STEP    5, STRESS PERIOD   53
 UBDSV1 SAVING           STO-SS ON UNIT   1016 AT TIME STEP      6, STRESS PERIOD     53
 UBDSV1 SAVING           STO-SY ON UNIT   1016 AT TIME STEP      6, STRESS PERIOD     53
 UBDSV1 SAVING     FLOW-JA-FACE ON UNIT   1016 AT TIME STEP      6, STRESS PERIOD     53
 UBDSV06 SAVING              RCH IN MODEL TEST_TRANS       PACKAGE TEST_TRANS      CONNECTED TO MODEL TEST_TRANS       PACKAGE RCHA             ON UNIT   1016 AT TIME STEP      6, STRESS PERIOD     53
 UBDSV06 SAVING              CHD IN MODEL TEST_TRANS       PACKAGE TEST_TRANS      CONNECTED TO MODEL TEST_TRANS       PACKAGE CHD              ON UNIT   1016 AT TIME STEP      6, STRESS PERIOD     53

 HEAD WILL BE SAVED ON UNIT 1017 AT END OF TIME STEP    6, STRESS PERIOD   53
 UBDSV1 SAVING           STO-SS ON UNIT   1016 AT TIME STEP      7, STRESS PERIOD     53
 UBDSV1 SAVING           STO-SY ON UNIT   1016 AT TIME STEP      7, STRESS PERIOD     53
 UBDSV1 SAVING     FLOW-JA-FACE ON UNIT   1016 AT TIME STEP      7, STRESS PERIOD     53
 UBDSV06 SAVING              RCH IN MODEL TEST_TRANS       PACKAGE TEST_TRANS      CONNECTED TO MODEL TEST_TRANS       PACKAGE RCHA             ON UNIT   1016 AT TIME STEP      7, STRESS PERIOD     53
 UBDSV06 SAVING              CHD IN MODEL TEST_TRANS       PACKAGE TEST_TRANS      CONNECTED TO MODEL TEST_TRANS       PACKAGE CHD              ON UNIT   1016 AT TIME STEP      7, STRESS PERIOD     53

 HEAD WILL BE SAVED ON UNIT 1017 AT END OF TIME STEP    7, STRESS PERIOD   53
 UBDSV1 SAVING           STO-SS ON UNIT   1016 AT TIME STEP      8, STRESS PERIOD     53
 UBDSV1 SAVING           STO-SY ON UNIT   1016 AT TIME STEP      8, STRESS PERIOD     53
 UBDSV1 SAVING     FLOW-JA-FACE ON UNIT   1016 AT TIME STEP      8, STRESS PERIOD     53
 UBDSV06 SAVING              RCH IN MODEL TEST_TRANS       PACKAGE TEST_TRANS      CONNECTED TO MODEL TEST_TRANS       PACKAGE RCHA             ON UNIT   1016 AT TIME STEP      8, STRESS PERIOD     53
 UBDSV06 SAVING              CHD IN MODEL TEST_TRANS       PACKAGE TEST_TRANS      CONNECTED TO MODEL TEST_TRANS       PACKAGE CHD              ON UNIT   1016 AT TIME STEP      8, STRESS PERIOD     53

 HEAD WILL BE SAVED ON UNIT 1017 AT END OF TIME STEP    8, STRESS PERIOD   53
 UBDSV1 SAVING           STO-SS ON UNIT   1016 AT TIME STEP      9, STRESS PERIOD     53
 UBDSV1 SAVING           STO-SY ON UNIT   1016 AT TIME STEP      9, STRESS PERIOD     53
 UBDSV1 SAVING     FLOW-JA-FACE ON UNIT   1016 AT TIME STEP      9, STRESS PERIOD     53
 UBDSV06 SAVING              RCH IN MODEL TEST_TRANS       PACKAGE TEST_TRANS      CONNECTED TO MODEL TEST_TRANS       PACKAGE RCHA             ON UNIT   1016 AT TIME STEP      9, STRESS PERIOD     53
 UBDSV06 SAVING              CHD IN MODEL TEST_TRANS       PACKAGE TEST_TRANS      CONNECTED TO MODEL TEST_TRANS       PACKAGE CHD              ON UNIT   1016 AT TIME STEP      9, STRESS PERIOD     53

 HEAD WILL BE SAVED ON UNIT 1017 AT END OF TIME STEP    9, STRESS PERIOD   53
 UBDSV1 SAVING           STO-SS ON UNIT   1016 AT TIME STEP     10, STRESS PERIOD     53
 UBDSV1 SAVING           STO-SY ON UNIT   1016 AT TIME STEP     10, STRESS PERIOD     53
 UBDSV1 SAVING     FLOW-JA-FACE ON UNIT   1016 AT TIME STEP     10, STRESS PERIOD     53
 UBDSV06 SAVING              RCH IN MODEL TEST_TRANS       PACKAGE TEST_TRANS      CONNECTED TO MODEL TEST_TRANS       PACKAGE RCHA             ON UNIT   1016 AT TIME STEP     10, STRESS PERIOD     53
 UBDSV06 SAVING              CHD IN MODEL TEST_TRANS       PACKAGE TEST_TRANS      CONNECTED TO MODEL TEST_TRANS       PACKAGE CHD              ON UNIT   1016 AT TIME STEP     10, STRESS PERIOD     53
1
  HEAD IN LAYER   1 AT END OF TIME STEP  10 IN STRESS PERIOD   53
  ---------------------------------------------------------------------------

            1           2           3           4           5           6           7           8           9          10
           11          12          13          14          15          16          17          18          19          20
           21          22          23          24          25          26          27          28          29          30
 ........................................................................................................................
   1    27.90       27.89       27.88       27.87       27.85       27.82       27.79       27.76       27.72       27.68    
        27.62       27.57       27.51       27.44       27.37       27.29       27.20       27.11       27.01       26.90    
        26.78       26.65       26.52       26.37       26.21       26.03       25.84       25.63       25.40       25.13    
   2    27.90       27.89       27.88       27.87       27.85       27.82       27.79       27.76       27.72       27.68    
        27.62       27.57       27.51       27.44       27.37       27.29       27.20       27.11       27.01       26.90    
        26.78       26.65       26.52       26.37       26.21       26.03       25.84       25.63       25.40       25.13    
   3    27.90       27.89       27.88       27.87       27.85       27.82       27.79       27.76       27.72       27.68    
        27.62       27.57       27.51       27.44       27.37       27.29       27.20       27.11       27.01       26.90    
        26.78       26.65       26.52       26.37       26.21       26.03       25.84       25.63       25.40       25.13    
   4    27.90       27.89       27.88       27.87       27.85       27.82       27.79       27.76       27.72       27.68    
        27.62       27.57       27.51       27.44       27.37       27.29       27.20       27.11       27.01       26.90    
        26.78       26.65       26.52       26.37       26.21       26.03       25.84       25.63       25.40       25.13    
   5    27.90       27.89       27.88       27.87       27.85       27.82       27.79       27.76       27.72       27.68    
        27.62       27.57       27.51       27.44       27.37       27.29       27.20       27.11       27.01       26.90    
        26.78       26.65       26.52       26.37       26.21       26.03       25.84       25.63       25.40       25.13    
   6    27.90       27.89       27.88       27.87       27.85       27.82       27.79       27.76       27.72       27.68    
        27.62       27.57       27.51       27.44       27.37       27.29       27.20       27.11       27.01       26.90    
        26.78       26.65       26.52       26.37       26.21       26.03       25.84       25.63       25.40       25.13    
   7    27.90       27.89       27.88       27.87       27.85       27.82       27.79       27.76       27.72       27.68    
        27.62       27.57       27.51       27.44       27.37       27.29       27.20       27.11       27.01       26.90    
        26.78       26.65       26.52       26.37       26.21       26.03       25.84       25.63       25.40       25.13    
   8    27.90       27.89       27.88       27.87       27.85       27.82       27.79       27.76       27.72       27.68    
        27.62       27.57       27.51       27.44       27.37       27.29       27.20       27.11       27.01       26.90    
        26.78       26.65       26.52       26.37       26.21       26.03       25.84       25.63       25.40       25.13    
   9    27.90       27.89       27.88       27.87       27.85       27.82       27.79       27.76       27.72       27.68    
        27.62       27.57       27.51       27.44       27.37       27.29       27.20       27.11       27.01       26.90    
        26.78       26.65       26.52       26.37       26.21       26.03       25.84       25.63       25.40       25.13    
  10    27.90       27.89       27.88       27.87       27.85       27.82       27.79       27.76       27.72       27.68    
        27.62       27.57       27.51       27.44       27.37       27.29       27.20       27.11       27.01       26.90    
        26.78       26.65       26.52       26.37       26.21       26.03       25.84       25.63       25.40       25.13    
  11    27.90       27.89       27.88       27.87       27.85       27.82       27.79       27.76       27.72       27.68    
        27.62       27.57       27.51       27.44       27.37       27.29       27.20       27.11       27.01       26.90    
        26.78       26.65       26.52       26.37       26.21       26.03       25.84       25.63       25.40       25.13    
  12    27.90       27.89       27.88       27.87       27.85       27.82       27.79       27.76       27.72       27.68    
        27.62       27.57       27.51       27.44       27.37       27.29       27.20       27.11       27.01       26.90    
        26.78       26.65       26.52       26.37       26.21       26.03       25.84       25.63       25.40       25.13    
  13    27.90       27.89       27.88       27.87       27.85       27.82       27.79       27.76       27.72       27.68    
        27.62       27.57       27.51       27.44       27.37       27.29       27.20       27.11       27.01       26.90    
        26.78       26.65       26.52       26.37       26.21       26.03       25.84       25.63       25.40       25.13    
  14    27.90       27.89       27.88       27.87       27.85       27.82       27.79       27.76       27.72       27.68    
        27.62       27.57       27.51       27.44       27.37       27.29       27.20       27.11       27.01       26.90    
        26.78       26.65       26.52       26.37       26.21       26.03       25.84       25.63       25.40       25.13    
  15    27.90       27.89       27.88       27.87       27.85       27.82       27.79       27.76       27.72       27.68    
        27.62       27.57       27.51       27.44       27.37       27.29       27.20       27.11       27.01       26.90    
        26.78       26.65       26.52       26.37       26.21       26.03       25.84       25.63       25.40       25.13    
  16    27.90       27.89       27.88       27.87       27.85       27.82       27.79       27.76       27.72       27.68    
        27.62       27.57       27.51       27.44       27.37       27.29       27.20       27.11       27.01       26.90    
        26.78       26.65       26.52       26.37       26.21       26.03       25.84       25.63       25.40       25.13    
  17    27.90       27.89       27.88       27.87       27.85       27.82       27.79       27.76       27.72       27.68    
        27.62       27.57       27.51       27.44       27.37       27.29       27.20       27.11       27.01       26.90    
        26.78       26.65       26.52       26.37       26.21       26.03       25.84       25.63       25.40       25.13    
  18    27.90       27.89       27.88       27.87       27.85       27.82       27.79       27.76       27.72       27.68    
        27.62       27.57       27.51       27.44       27.37       27.29       27.20       27.11       27.01       26.90    
        26.78       26.65       26.52       26.37       26.21       26.03       25.84       25.63       25.40       25.13    
  19    27.90       27.89       27.88       27.87       27.85       27.82       27.79       27.76       27.72       27.68    
        27.62       27.57       27.51       27.44       27.37       27.29       27.20       27.11       27.01       26.90    
        26.78       26.65       26.52       26.37       26.21       26.03       25.84       25.63       25.40       25.13    
  20    27.90       27.89       27.88       27.87       27.85       27.82       27.79       27.76       27.72       27.68    
        27.62       27.57       27.51       27.44       27.37       27.29       27.20       27.11       27.01       26.90    
        26.78       26.65       26.52       26.37       26.21       26.03       25.84       25.63       25.40       25.13    
  21    27.90       27.89       27.88       27.87       27.85       27.82       27.79       27.76       27.72       27.68    
        27.62       27.57       27.51       27.44       27.37       27.29       27.20       27.11       27.01       26.90    
        26.78       26.65       26.52       26.37       26.21       26.03       25.84       25.63       25.40       25.13    
  22    27.90       27.89       27.88       27.87       27.85       27.82       27.79       27.76       27.72       27.68    
        27.62       27.57       27.51       27.44       27.37       27.29       27.20       27.11       27.01       26.90    
        26.78       26.65       26.52       26.37       26.21       26.03       25.84       25.63       25.40       25.13    
  23    27.90       27.89       27.88       27.87       27.85       27.82       27.79       27.76       27.72       27.68    
        27.62       27.57       27.51       27.44       27.37       27.29       27.20       27.11       27.01       26.90    
        26.78       26.65       26.52       26.37       26.21       26.03       25.84       25.63       25.40       25.13    
  24    27.90       27.89       27.88       27.87       27.85       27.82       27.79       27.76       27.72       27.68    
        27.62       27.57       27.51       27.44       27.37       27.29       27.20       27.11       27.01       26.90    
        26.78       26.65       26.52       26.37       26.21       26.03       25.84       25.63       25.40       25.13    
  25    27.90       27.89       27.88       27.87       27.85       27.82       27.79       27.76       27.72       27.68    
        27.62       27.57       27.51       27.44       27.37       27.29       27.20       27.11       27.01       26.90    
        26.78       26.65       26.52       26.37       26.21       26.03       25.84       25.63       25.40       25.13    
  26    27.90       27.89       27.88       27.87       27.85       27.82       27.79       27.76       27.72       27.68    
        27.62       27.57       27.51       27.44       27.37       27.29       27.20       27.11       27.01       26.90    
        26.78       26.65       26.52       26.37       26.21       26.03       25.84       25.63       25.40       25.13    
  27    27.90       27.89       27.88       27.87       27.85       27.82       27.79       27.76       27.72       27.68    
        27.62       27.57       27.51       27.44       27.37       27.29       27.20       27.11       27.01       26.90    
        26.78       26.65       26.52       26.37       26.21       26.03       25.84       25.63       25.40       25.13    
  28    27.90       27.89       27.88       27.87       27.85       27.82       27.79       27.76       27.72       27.68    
        27.62       27.57       27.51       27.44       27.37       27.29       27.20       27.11       27.01       26.90    
        26.78       26.65       26.52       26.37       26.21       26.03       25.84       25.63       25.40       25.13    
  29    27.90       27.89       27.88       27.87       27.85       27.82       27.79       27.76       27.72       27.68    
        27.62       27.57       27.51       27.44       27.37       27.29       27.20       27.11       27.01       26.90    
        26.78       26.65       26.52       26.37       26.21       26.03       25.84       25.63       25.40       25.13    
  30    27.90       27.89       27.88       27.87       27.85       27.82       27.79       27.76       27.72       27.68    
        27.62       27.57       27.51       27.44       27.37       27.29       27.20       27.11       27.01       26.90    
        26.78       26.65       26.52       26.37       26.21       26.03       25.84       25.63       25.40       25.13    

 HEAD WILL BE SAVED ON UNIT 1017 AT END OF TIME STEP   10, STRESS PERIOD   53


  VOLUME BUDGET FOR ENTIRE MODEL AT END OF TIME STEP   10, STRESS PERIOD  53
  ---------------------------------------------------------------------------------------------------

     CUMULATIVE VOLUME      L**3       RATES FOR THIS TIME STEP      L**3/T          PACKAGE NAME    
     ------------------                 ------------------------                     ----------------

           IN:                                      IN:
           ---                                      ---
              STO-SS =          82.6740                STO-SS =       8.0052E-02     STORAGE         
              STO-SY =       53472.7819                STO-SY =          50.3060     STORAGE         
                 RCH =      261596.0102                   RCH =         107.2606     RCHA            
                 CHD =        4772.3889                   CHD =           0.0000     CHD             

            TOTAL IN =      319923.8550              TOTAL IN =         157.6466

          OUT:                                     OUT:
          ----                                     ----
              STO-SS =          74.1053                STO-SS =           0.0000     STORAGE         
              STO-SY =       48292.7804                STO-SY =           0.0000     STORAGE         
                 RCH =           0.0000                   RCH =           0.0000     RCHA            
                 CHD =      271556.2890                   CHD =         157.6437     CHD             

           TOTAL OUT =      319923.1747             TOTAL OUT =         157.6437

            IN - OUT =           0.6802              IN - OUT =       2.9285E-03

 PERCENT DISCREPANCY =           0.00     PERCENT DISCREPANCY =           0.00




         TIME SUMMARY AT END OF TIME STEP   10 IN STRESS PERIOD   53
                    SECONDS     MINUTES      HOURS       DAYS        YEARS
                    -----------------------------------------------------------
   TIME STEP LENGTH 2.59200E+05  4320.0      72.000      3.0000     8.21355E-03
 STRESS PERIOD TIME 2.59200E+06  43200.      720.00      30.000     8.21355E-02
         TOTAL TIME 1.34870E+08 2.24784E+06  37464.      1561.0      4.2738    

 OUTPUT CONTROL FOR STRESS PERIOD 54 IS REPEATED USING SETTINGS FROM A PREVIOUS STRESS PERIOD.


 STRESS PERIOD 54 IS TRANSIENT


                 RECHARGE =  0.8219178E-03
 UBDSV1 SAVING           STO-SS ON UNIT   1016 AT TIME STEP      1, STRESS PERIOD     54
 UBDSV1 SAVING           STO-SY ON UNIT   1016 AT TIME STEP      1, STRESS PERIOD     54
 UBDSV1 SAVING     FLOW-JA-FACE ON UNIT   1016 AT TIME STEP      1, STRESS PERIOD     54
 UBDSV06 SAVING              RCH IN MODEL TEST_TRANS       PACKAGE TEST_TRANS      CONNECTED TO MODEL TEST_TRANS       PACKAGE RCHA             ON UNIT   1016 AT TIME STEP      1, STRESS PERIOD     54
 UBDSV06 SAVING              CHD IN MODEL TEST_TRANS       PACKAGE TEST_TRANS      CONNECTED TO MODEL TEST_TRANS       PACKAGE CHD              ON UNIT   1016 AT TIME STEP      1, STRESS PERIOD     54
1
  HEAD IN LAYER   1 AT END OF TIME STEP   1 IN STRESS PERIOD   54
  ---------------------------------------------------------------------------

            1           2           3           4           5           6           7           8           9          10
           11          12          13          14          15          16          17          18          19          20
           21          22          23          24          25          26          27          28          29          30
 ........................................................................................................................
   1    27.88       27.87       27.86       27.85       27.83       27.81       27.78       27.74       27.70       27.66    
        27.61       27.55       27.49       27.42       27.35       27.27       27.19       27.10       27.00       26.89    
        26.78       26.66       26.54       26.42       26.30       26.20       26.13       26.13       26.25       26.56    
   2    27.88       27.87       27.86       27.85       27.83       27.81       27.78       27.74       27.70       27.66    
        27.61       27.55       27.49       27.42       27.35       27.27       27.19       27.10       27.00       26.89    
        26.78       26.66       26.54       26.42       26.30       26.20       26.13       26.13       26.25       26.56    
   3    27.88       27.87       27.86       27.85       27.83       27.81       27.78       27.74       27.70       27.66    
        27.61       27.55       27.49       27.42       27.35       27.27       27.19       27.10       27.00       26.89    
        26.78       26.66       26.54       26.42       26.30       26.20       26.13       26.13       26.25       26.56    
   4    27.88       27.87       27.86       27.85       27.83       27.81       27.78       27.74       27.70       27.66    
        27.61       27.55       27.49       27.42       27.35       27.27       27.19       27.10       27.00       26.89    
        26.78       26.66       26.54       26.42       26.30       26.20       26.13       26.13       26.25       26.56    
   5    27.88       27.87       27.86       27.85       27.83       27.81       27.78       27.74       27.70       27.66    
        27.61       27.55       27.49       27.42       27.35       27.27       27.19       27.10       27.00       26.89    
        26.78       26.66       26.54       26.42       26.30       26.20       26.13       26.13       26.25       26.56    
   6    27.88       27.87       27.86       27.85       27.83       27.81       27.78       27.74       27.70       27.66    
        27.61       27.55       27.49       27.42       27.35       27.27       27.19       27.10       27.00       26.89    
        26.78       26.66       26.54       26.42       26.30       26.20       26.13       26.13       26.25       26.56    
   7    27.88       27.87       27.86       27.85       27.83       27.81       27.78       27.74       27.70       27.66    
        27.61       27.55       27.49       27.42       27.35       27.27       27.19       27.10       27.00       26.89    
        26.78       26.66       26.54       26.42       26.30       26.20       26.13       26.13       26.25       26.56    
   8    27.88       27.87       27.86       27.85       27.83       27.81       27.78       27.74       27.70       27.66    
        27.61       27.55       27.49       27.42       27.35       27.27       27.19       27.10       27.00       26.89    
        26.78       26.66       26.54       26.42       26.30       26.20       26.13       26.13       26.25       26.56    
   9    27.88       27.87       27.86       27.85       27.83       27.81       27.78       27.74       27.70       27.66    
        27.61       27.55       27.49       27.42       27.35       27.27       27.19       27.10       27.00       26.89    
        26.78       26.66       26.54       26.42       26.30       26.20       26.13       26.13       26.25       26.56    
  10    27.88       27.87       27.86       27.85       27.83       27.81       27.78       27.74       27.70       27.66    
        27.61       27.55       27.49       27.42       27.35       27.27       27.19       27.10       27.00       26.89    
        26.78       26.66       26.54       26.42       26.30       26.20       26.13       26.13       26.25       26.56    
  11    27.88       27.87       27.86       27.85       27.83       27.81       27.78       27.74       27.70       27.66    
        27.61       27.55       27.49       27.42       27.35       27.27       27.19       27.10       27.00       26.89    
        26.78       26.66       26.54       26.42       26.30       26.20       26.13       26.13       26.25       26.56    
  12    27.88       27.87       27.86       27.85       27.83       27.81       27.78       27.74       27.70       27.66    
        27.61       27.55       27.49       27.42       27.35       27.27       27.19       27.10       27.00       26.89    
        26.78       26.66       26.54       26.42       26.30       26.20       26.13       26.13       26.25       26.56    
  13    27.88       27.87       27.86       27.85       27.83       27.81       27.78       27.74       27.70       27.66    
        27.61       27.55       27.49       27.42       27.35       27.27       27.19       27.10       27.00       26.89    
        26.78       26.66       26.54       26.42       26.30       26.20       26.13       26.13       26.25       26.56    
  14    27.88       27.87       27.86       27.85       27.83       27.81       27.78       27.74       27.70       27.66    
        27.61       27.55       27.49       27.42       27.35       27.27       27.19       27.10       27.00       26.89    
        26.78       26.66       26.54       26.42       26.30       26.20       26.13       26.13       26.25       26.56    
  15    27.88       27.87       27.86       27.85       27.83       27.81       27.78       27.74       27.70       27.66    
        27.61       27.55       27.49       27.42       27.35       27.27       27.19       27.10       27.00       26.89    
        26.78       26.66       26.54       26.42       26.30       26.20       26.13       26.13       26.25       26.56    
  16    27.88       27.87       27.86       27.85       27.83       27.81       27.78       27.74       27.70       27.66    
        27.61       27.55       27.49       27.42       27.35       27.27       27.19       27.10       27.00       26.89    
        26.78       26.66       26.54       26.42       26.30       26.20       26.13       26.13       26.25       26.56    
  17    27.88       27.87       27.86       27.85       27.83       27.81       27.78       27.74       27.70       27.66    
        27.61       27.55       27.49       27.42       27.35       27.27       27.19       27.10       27.00       26.89    
        26.78       26.66       26.54       26.42       26.30       26.20       26.13       26.13       26.25       26.56    
  18    27.88       27.87       27.86       27.85       27.83       27.81       27.78       27.74       27.70       27.66    
        27.61       27.55       27.49       27.42       27.35       27.27       27.19       27.10       27.00       26.89    
        26.78       26.66       26.54       26.42       26.30       26.20       26.13       26.13       26.25       26.56    
  19    27.88       27.87       27.86       27.85       27.83       27.81       27.78       27.74       27.70       27.66    
        27.61       27.55       27.49       27.42       27.35       27.27       27.19       27.10       27.00       26.89    
        26.78       26.66       26.54       26.42       26.30       26.20       26.13       26.13       26.25       26.56    
  20    27.88       27.87       27.86       27.85       27.83       27.81       27.78       27.74       27.70       27.66    
        27.61       27.55       27.49       27.42       27.35       27.27       27.19       27.10       27.00       26.89    
        26.78       26.66       26.54       26.42       26.30       26.20       26.13       26.13       26.25       26.56    
  21    27.88       27.87       27.86       27.85       27.83       27.81       27.78       27.74       27.70       27.66    
        27.61       27.55       27.49       27.42       27.35       27.27       27.19       27.10       27.00       26.89    
        26.78       26.66       26.54       26.42       26.30       26.20       26.13       26.13       26.25       26.56    
  22    27.88       27.87       27.86       27.85       27.83       27.81       27.78       27.74       27.70       27.66    
        27.61       27.55       27.49       27.42       27.35       27.27       27.19       27.10       27.00       26.89    
        26.78       26.66       26.54       26.42       26.30       26.20       26.13       26.13       26.25       26.56    
  23    27.88       27.87       27.86       27.85       27.83       27.81       27.78       27.74       27.70       27.66    
        27.61       27.55       27.49       27.42       27.35       27.27       27.19       27.10       27.00       26.89    
        26.78       26.66       26.54       26.42       26.30       26.20       26.13       26.13       26.25       26.56    
  24    27.88       27.87       27.86       27.85       27.83       27.81       27.78       27.74       27.70       27.66    
        27.61       27.55       27.49       27.42       27.35       27.27       27.19       27.10       27.00       26.89    
        26.78       26.66       26.54       26.42       26.30       26.20       26.13       26.13       26.25       26.56    
  25    27.88       27.87       27.86       27.85       27.83       27.81       27.78       27.74       27.70       27.66    
        27.61       27.55       27.49       27.42       27.35       27.27       27.19       27.10       27.00       26.89    
        26.78       26.66       26.54       26.42       26.30       26.20       26.13       26.13       26.25       26.56    
  26    27.88       27.87       27.86       27.85       27.83       27.81       27.78       27.74       27.70       27.66    
        27.61       27.55       27.49       27.42       27.35       27.27       27.19       27.10       27.00       26.89    
        26.78       26.66       26.54       26.42       26.30       26.20       26.13       26.13       26.25       26.56    
  27    27.88       27.87       27.86       27.85       27.83       27.81       27.78       27.74       27.70       27.66    
        27.61       27.55       27.49       27.42       27.35       27.27       27.19       27.10       27.00       26.89    
        26.78       26.66       26.54       26.42       26.30       26.20       26.13       26.13       26.25       26.56    
  28    27.88       27.87       27.86       27.85       27.83       27.81       27.78       27.74       27.70       27.66    
        27.61       27.55       27.49       27.42       27.35       27.27       27.19       27.10       27.00       26.89    
        26.78       26.66       26.54       26.42       26.30       26.20       26.13       26.13       26.25       26.56    
  29    27.88       27.87       27.86       27.85       27.83       27.81       27.78       27.74       27.70       27.66    
        27.61       27.55       27.49       27.42       27.35       27.27       27.19       27.10       27.00       26.89    
        26.78       26.66       26.54       26.42       26.30       26.20       26.13       26.13       26.25       26.56    
  30    27.88       27.87       27.86       27.85       27.83       27.81       27.78       27.74       27.70       27.66    
        27.61       27.55       27.49       27.42       27.35       27.27       27.19       27.10       27.00       26.89    
        26.78       26.66       26.54       26.42       26.30       26.20       26.13       26.13       26.25       26.56    

 HEAD WILL BE SAVED ON UNIT 1017 AT END OF TIME STEP    1, STRESS PERIOD   54



         TIME SUMMARY AT END OF TIME STEP    1 IN STRESS PERIOD   54
                    SECONDS     MINUTES      HOURS       DAYS        YEARS
                    -----------------------------------------------------------
   TIME STEP LENGTH 2.59200E+05  4320.0      72.000      3.0000     8.21355E-03
 STRESS PERIOD TIME 2.59200E+05  4320.0      72.000      3.0000     8.21355E-03
         TOTAL TIME 1.35130E+08 2.25216E+06  37536.      1564.0      4.2820    
 UBDSV1 SAVING           STO-SS ON UNIT   1016 AT TIME STEP      2, STRESS PERIOD     54
 UBDSV1 SAVING           STO-SY ON UNIT   1016 AT TIME STEP      2, STRESS PERIOD     54
 UBDSV1 SAVING     FLOW-JA-FACE ON UNIT   1016 AT TIME STEP      2, STRESS PERIOD     54
 UBDSV06 SAVING              RCH IN MODEL TEST_TRANS       PACKAGE TEST_TRANS      CONNECTED TO MODEL TEST_TRANS       PACKAGE RCHA             ON UNIT   1016 AT TIME STEP      2, STRESS PERIOD     54
 UBDSV06 SAVING              CHD IN MODEL TEST_TRANS       PACKAGE TEST_TRANS      CONNECTED TO MODEL TEST_TRANS       PACKAGE CHD              ON UNIT   1016 AT TIME STEP      2, STRESS PERIOD     54

 HEAD WILL BE SAVED ON UNIT 1017 AT END OF TIME STEP    2, STRESS PERIOD   54
 UBDSV1 SAVING           STO-SS ON UNIT   1016 AT TIME STEP      3, STRESS PERIOD     54
 UBDSV1 SAVING           STO-SY ON UNIT   1016 AT TIME STEP      3, STRESS PERIOD     54
 UBDSV1 SAVING     FLOW-JA-FACE ON UNIT   1016 AT TIME STEP      3, STRESS PERIOD     54
 UBDSV06 SAVING              RCH IN MODEL TEST_TRANS       PACKAGE TEST_TRANS      CONNECTED TO MODEL TEST_TRANS       PACKAGE RCHA             ON UNIT   1016 AT TIME STEP      3, STRESS PERIOD     54
 UBDSV06 SAVING              CHD IN MODEL TEST_TRANS       PACKAGE TEST_TRANS      CONNECTED TO MODEL TEST_TRANS       PACKAGE CHD              ON UNIT   1016 AT TIME STEP      3, STRESS PERIOD     54

 HEAD WILL BE SAVED ON UNIT 1017 AT END OF TIME STEP    3, STRESS PERIOD   54
 UBDSV1 SAVING           STO-SS ON UNIT   1016 AT TIME STEP      4, STRESS PERIOD     54
 UBDSV1 SAVING           STO-SY ON UNIT   1016 AT TIME STEP      4, STRESS PERIOD     54
 UBDSV1 SAVING     FLOW-JA-FACE ON UNIT   1016 AT TIME STEP      4, STRESS PERIOD     54
 UBDSV06 SAVING              RCH IN MODEL TEST_TRANS       PACKAGE TEST_TRANS      CONNECTED TO MODEL TEST_TRANS       PACKAGE RCHA             ON UNIT   1016 AT TIME STEP      4, STRESS PERIOD     54
 UBDSV06 SAVING              CHD IN MODEL TEST_TRANS       PACKAGE TEST_TRANS      CONNECTED TO MODEL TEST_TRANS       PACKAGE CHD              ON UNIT   1016 AT TIME STEP      4, STRESS PERIOD     54

 HEAD WILL BE SAVED ON UNIT 1017 AT END OF TIME STEP    4, STRESS PERIOD   54
 UBDSV1 SAVING           STO-SS ON UNIT   1016 AT TIME STEP      5, STRESS PERIOD     54
 UBDSV1 SAVING           STO-SY ON UNIT   1016 AT TIME STEP      5, STRESS PERIOD     54
 UBDSV1 SAVING     FLOW-JA-FACE ON UNIT   1016 AT TIME STEP      5, STRESS PERIOD     54
 UBDSV06 SAVING              RCH IN MODEL TEST_TRANS       PACKAGE TEST_TRANS      CONNECTED TO MODEL TEST_TRANS       PACKAGE RCHA             ON UNIT   1016 AT TIME STEP      5, STRESS PERIOD     54
 UBDSV06 SAVING              CHD IN MODEL TEST_TRANS       PACKAGE TEST_TRANS      CONNECTED TO MODEL TEST_TRANS       PACKAGE CHD              ON UNIT   1016 AT TIME STEP      5, STRESS PERIOD     54

 HEAD WILL BE SAVED ON UNIT 1017 AT END OF TIME STEP    5, STRESS PERIOD   54
 UBDSV1 SAVING           STO-SS ON UNIT   1016 AT TIME STEP      6, STRESS PERIOD     54
 UBDSV1 SAVING           STO-SY ON UNIT   1016 AT TIME STEP      6, STRESS PERIOD     54
 UBDSV1 SAVING     FLOW-JA-FACE ON UNIT   1016 AT TIME STEP      6, STRESS PERIOD     54
 UBDSV06 SAVING              RCH IN MODEL TEST_TRANS       PACKAGE TEST_TRANS      CONNECTED TO MODEL TEST_TRANS       PACKAGE RCHA             ON UNIT   1016 AT TIME STEP      6, STRESS PERIOD     54
 UBDSV06 SAVING              CHD IN MODEL TEST_TRANS       PACKAGE TEST_TRANS      CONNECTED TO MODEL TEST_TRANS       PACKAGE CHD              ON UNIT   1016 AT TIME STEP      6, STRESS PERIOD     54

 HEAD WILL BE SAVED ON UNIT 1017 AT END OF TIME STEP    6, STRESS PERIOD   54
 UBDSV1 SAVING           STO-SS ON UNIT   1016 AT TIME STEP      7, STRESS PERIOD     54
 UBDSV1 SAVING           STO-SY ON UNIT   1016 AT TIME STEP      7, STRESS PERIOD     54
 UBDSV1 SAVING     FLOW-JA-FACE ON UNIT   1016 AT TIME STEP      7, STRESS PERIOD     54
 UBDSV06 SAVING              RCH IN MODEL TEST_TRANS       PACKAGE TEST_TRANS      CONNECTED TO MODEL TEST_TRANS       PACKAGE RCHA             ON UNIT   1016 AT TIME STEP      7, STRESS PERIOD     54
 UBDSV06 SAVING              CHD IN MODEL TEST_TRANS       PACKAGE TEST_TRANS      CONNECTED TO MODEL TEST_TRANS       PACKAGE CHD              ON UNIT   1016 AT TIME STEP      7, STRESS PERIOD     54

 HEAD WILL BE SAVED ON UNIT 1017 AT END OF TIME STEP    7, STRESS PERIOD   54
 UBDSV1 SAVING           STO-SS ON UNIT   1016 AT TIME STEP      8, STRESS PERIOD     54
 UBDSV1 SAVING           STO-SY ON UNIT   1016 AT TIME STEP      8, STRESS PERIOD     54
 UBDSV1 SAVING     FLOW-JA-FACE ON UNIT   1016 AT TIME STEP      8, STRESS PERIOD     54
 UBDSV06 SAVING              RCH IN MODEL TEST_TRANS       PACKAGE TEST_TRANS      CONNECTED TO MODEL TEST_TRANS       PACKAGE RCHA             ON UNIT   1016 AT TIME STEP      8, STRESS PERIOD     54
 UBDSV06 SAVING              CHD IN MODEL TEST_TRANS       PACKAGE TEST_TRANS      CONNECTED TO MODEL TEST_TRANS       PACKAGE CHD              ON UNIT   1016 AT TIME STEP      8, STRESS PERIOD     54

 HEAD WILL BE SAVED ON UNIT 1017 AT END OF TIME STEP    8, STRESS PERIOD   54
 UBDSV1 SAVING           STO-SS ON UNIT   1016 AT TIME STEP      9, STRESS PERIOD     54
 UBDSV1 SAVING           STO-SY ON UNIT   1016 AT TIME STEP      9, STRESS PERIOD     54
 UBDSV1 SAVING     FLOW-JA-FACE ON UNIT   1016 AT TIME STEP      9, STRESS PERIOD     54
 UBDSV06 SAVING              RCH IN MODEL TEST_TRANS       PACKAGE TEST_TRANS      CONNECTED TO MODEL TEST_TRANS       PACKAGE RCHA             ON UNIT   1016 AT TIME STEP      9, STRESS PERIOD     54
 UBDSV06 SAVING              CHD IN MODEL TEST_TRANS       PACKAGE TEST_TRANS      CONNECTED TO MODEL TEST_TRANS       PACKAGE CHD              ON UNIT   1016 AT TIME STEP      9, STRESS PERIOD     54

 HEAD WILL BE SAVED ON UNIT 1017 AT END OF TIME STEP    9, STRESS PERIOD   54
 UBDSV1 SAVING           STO-SS ON UNIT   1016 AT TIME STEP     10, STRESS PERIOD     54
 UBDSV1 SAVING           STO-SY ON UNIT   1016 AT TIME STEP     10, STRESS PERIOD     54
 UBDSV1 SAVING     FLOW-JA-FACE ON UNIT   1016 AT TIME STEP     10, STRESS PERIOD     54
 UBDSV06 SAVING              RCH IN MODEL TEST_TRANS       PACKAGE TEST_TRANS      CONNECTED TO MODEL TEST_TRANS       PACKAGE RCHA             ON UNIT   1016 AT TIME STEP     10, STRESS PERIOD     54
 UBDSV06 SAVING              CHD IN MODEL TEST_TRANS       PACKAGE TEST_TRANS      CONNECTED TO MODEL TEST_TRANS       PACKAGE CHD              ON UNIT   1016 AT TIME STEP     10, STRESS PERIOD     54
1
  HEAD IN LAYER   1 AT END OF TIME STEP  10 IN STRESS PERIOD   54
  ---------------------------------------------------------------------------

            1           2           3           4           5           6           7           8           9          10
           11          12          13          14          15          16          17          18          19          20
           21          22          23          24          25          26          27          28          29          30
 ........................................................................................................................
   1    27.74       27.73       27.73       27.71       27.70       27.68       27.65       27.63       27.60       27.56    
        27.52       27.48       27.44       27.39       27.34       27.29       27.24       27.19       27.13       27.08    
        27.03       26.97       26.92       26.87       26.82       26.77       26.72       26.67       26.61       26.56    
   2    27.74       27.73       27.73       27.71       27.70       27.68       27.65       27.63       27.60       27.56    
        27.52       27.48       27.44       27.39       27.34       27.29       27.24       27.19       27.13       27.08    
        27.03       26.97       26.92       26.87       26.82       26.77       26.72       26.67       26.61       26.56    
   3    27.74       27.73       27.73       27.71       27.70       27.68       27.65       27.63       27.60       27.56    
        27.52       27.48       27.44       27.39       27.34       27.29       27.24       27.19       27.13       27.08    
        27.03       26.97       26.92       26.87       26.82       26.77       26.72       26.67       26.61       26.56    
   4    27.74       27.73       27.73       27.71       27.70       27.68       27.65       27.63       27.60       27.56    
        27.52       27.48       27.44       27.39       27.34       27.29       27.24       27.19       27.13       27.08    
        27.03       26.97       26.92       26.87       26.82       26.77       26.72       26.67       26.61       26.56    
   5    27.74       27.73       27.73       27.71       27.70       27.68       27.65       27.63       27.60       27.56    
        27.52       27.48       27.44       27.39       27.34       27.29       27.24       27.19       27.13       27.08    
        27.03       26.97       26.92       26.87       26.82       26.77       26.72       26.67       26.61       26.56    
   6    27.74       27.73       27.73       27.71       27.70       27.68       27.65       27.63       27.60       27.56    
        27.52       27.48       27.44       27.39       27.34       27.29       27.24       27.19       27.13       27.08    
        27.03       26.97       26.92       26.87       26.82       26.77       26.72       26.67       26.61       26.56    
   7    27.74       27.73       27.73       27.71       27.70       27.68       27.65       27.63       27.60       27.56    
        27.52       27.48       27.44       27.39       27.34       27.29       27.24       27.19       27.13       27.08    
        27.03       26.97       26.92       26.87       26.82       26.77       26.72       26.67       26.61       26.56    
   8    27.74       27.73       27.73       27.71       27.70       27.68       27.65       27.63       27.60       27.56    
        27.52       27.48       27.44       27.39       27.34       27.29       27.24       27.19       27.13       27.08    
        27.03       26.97       26.92       26.87       26.82       26.77       26.72       26.67       26.61       26.56    
   9    27.74       27.73       27.73       27.71       27.70       27.68       27.65       27.63       27.60       27.56    
        27.52       27.48       27.44       27.39       27.34       27.29       27.24       27.19       27.13       27.08    
        27.03       26.97       26.92       26.87       26.82       26.77       26.72       26.67       26.61       26.56    
  10    27.74       27.73       27.73       27.71       27.70       27.68       27.65       27.63       27.60       27.56    
        27.52       27.48       27.44       27.39       27.34       27.29       27.24       27.19       27.13       27.08    
        27.03       26.97       26.92       26.87       26.82       26.77       26.72       26.67       26.61       26.56    
  11    27.74       27.73       27.73       27.71       27.70       27.68       27.65       27.63       27.60       27.56    
        27.52       27.48       27.44       27.39       27.34       27.29       27.24       27.19       27.13       27.08    
        27.03       26.97       26.92       26.87       26.82       26.77       26.72       26.67       26.61       26.56    
  12    27.74       27.73       27.73       27.71       27.70       27.68       27.65       27.63       27.60       27.56    
        27.52       27.48       27.44       27.39       27.34       27.29       27.24       27.19       27.13       27.08    
        27.03       26.97       26.92       26.87       26.82       26.77       26.72       26.67       26.61       26.56    
  13    27.74       27.73       27.73       27.71       27.70       27.68       27.65       27.63       27.60       27.56    
        27.52       27.48       27.44       27.39       27.34       27.29       27.24       27.19       27.13       27.08    
        27.03       26.97       26.92       26.87       26.82       26.77       26.72       26.67       26.61       26.56    
  14    27.74       27.73       27.73       27.71       27.70       27.68       27.65       27.63       27.60       27.56    
        27.52       27.48       27.44       27.39       27.34       27.29       27.24       27.19       27.13       27.08    
        27.03       26.97       26.92       26.87       26.82       26.77       26.72       26.67       26.61       26.56    
  15    27.74       27.73       27.73       27.71       27.70       27.68       27.65       27.63       27.60       27.56    
        27.52       27.48       27.44       27.39       27.34       27.29       27.24       27.19       27.13       27.08    
        27.03       26.97       26.92       26.87       26.82       26.77       26.72       26.67       26.61       26.56    
  16    27.74       27.73       27.73       27.71       27.70       27.68       27.65       27.63       27.60       27.56    
        27.52       27.48       27.44       27.39       27.34       27.29       27.24       27.19       27.13       27.08    
        27.03       26.97       26.92       26.87       26.82       26.77       26.72       26.67       26.61       26.56    
  17    27.74       27.73       27.73       27.71       27.70       27.68       27.65       27.63       27.60       27.56    
        27.52       27.48       27.44       27.39       27.34       27.29       27.24       27.19       27.13       27.08    
        27.03       26.97       26.92       26.87       26.82       26.77       26.72       26.67       26.61       26.56    
  18    27.74       27.73       27.73       27.71       27.70       27.68       27.65       27.63       27.60       27.56    
        27.52       27.48       27.44       27.39       27.34       27.29       27.24       27.19       27.13       27.08    
        27.03       26.97       26.92       26.87       26.82       26.77       26.72       26.67       26.61       26.56    
  19    27.74       27.73       27.73       27.71       27.70       27.68       27.65       27.63       27.60       27.56    
        27.52       27.48       27.44       27.39       27.34       27.29       27.24       27.19       27.13       27.08    
        27.03       26.97       26.92       26.87       26.82       26.77       26.72       26.67       26.61       26.56    
  20    27.74       27.73       27.73       27.71       27.70       27.68       27.65       27.63       27.60       27.56    
        27.52       27.48       27.44       27.39       27.34       27.29       27.24       27.19       27.13       27.08    
        27.03       26.97       26.92       26.87       26.82       26.77       26.72       26.67       26.61       26.56    
  21    27.74       27.73       27.73       27.71       27.70       27.68       27.65       27.63       27.60       27.56    
        27.52       27.48       27.44       27.39       27.34       27.29       27.24       27.19       27.13       27.08    
        27.03       26.97       26.92       26.87       26.82       26.77       26.72       26.67       26.61       26.56    
  22    27.74       27.73       27.73       27.71       27.70       27.68       27.65       27.63       27.60       27.56    
        27.52       27.48       27.44       27.39       27.34       27.29       27.24       27.19       27.13       27.08    
        27.03       26.97       26.92       26.87       26.82       26.77       26.72       26.67       26.61       26.56    
  23    27.74       27.73       27.73       27.71       27.70       27.68       27.65       27.63       27.60       27.56    
        27.52       27.48       27.44       27.39       27.34       27.29       27.24       27.19       27.13       27.08    
        27.03       26.97       26.92       26.87       26.82       26.77       26.72       26.67       26.61       26.56    
  24    27.74       27.73       27.73       27.71       27.70       27.68       27.65       27.63       27.60       27.56    
        27.52       27.48       27.44       27.39       27.34       27.29       27.24       27.19       27.13       27.08    
        27.03       26.97       26.92       26.87       26.82       26.77       26.72       26.67       26.61       26.56    
  25    27.74       27.73       27.73       27.71       27.70       27.68       27.65       27.63       27.60       27.56    
        27.52       27.48       27.44       27.39       27.34       27.29       27.24       27.19       27.13       27.08    
        27.03       26.97       26.92       26.87       26.82       26.77       26.72       26.67       26.61       26.56    
  26    27.74       27.73       27.73       27.71       27.70       27.68       27.65       27.63       27.60       27.56    
        27.52       27.48       27.44       27.39       27.34       27.29       27.24       27.19       27.13       27.08    
        27.03       26.97       26.92       26.87       26.82       26.77       26.72       26.67       26.61       26.56    
  27    27.74       27.73       27.73       27.71       27.70       27.68       27.65       27.63       27.60       27.56    
        27.52       27.48       27.44       27.39       27.34       27.29       27.24       27.19       27.13       27.08    
        27.03       26.97       26.92       26.87       26.82       26.77       26.72       26.67       26.61       26.56    
  28    27.74       27.73       27.73       27.71       27.70       27.68       27.65       27.63       27.60       27.56    
        27.52       27.48       27.44       27.39       27.34       27.29       27.24       27.19       27.13       27.08    
        27.03       26.97       26.92       26.87       26.82       26.77       26.72       26.67       26.61       26.56    
  29    27.74       27.73       27.73       27.71       27.70       27.68       27.65       27.63       27.60       27.56    
        27.52       27.48       27.44       27.39       27.34       27.29       27.24       27.19       27.13       27.08    
        27.03       26.97       26.92       26.87       26.82       26.77       26.72       26.67       26.61       26.56    
  30    27.74       27.73       27.73       27.71       27.70       27.68       27.65       27.63       27.60       27.56    
        27.52       27.48       27.44       27.39       27.34       27.29       27.24       27.19       27.13       27.08    
        27.03       26.97       26.92       26.87       26.82       26.77       26.72       26.67       26.61       26.56    

 HEAD WILL BE SAVED ON UNIT 1017 AT END OF TIME STEP   10, STRESS PERIOD   54


  VOLUME BUDGET FOR ENTIRE MODEL AT END OF TIME STEP   10, STRESS PERIOD  54
  ---------------------------------------------------------------------------------------------------

     CUMULATIVE VOLUME      L**3       RATES FOR THIS TIME STEP      L**3/T          PACKAGE NAME    
     ------------------                 ------------------------                     ----------------

           IN:                                      IN:
           ---                                      ---
              STO-SS =          84.4845                STO-SS =       3.3983E-02     STORAGE         
              STO-SY =       54591.9346                STO-SY =          21.0004     STORAGE         
                 RCH =      263741.2156                   RCH =          71.5068     RCHA            
                 CHD =        6024.4094                   CHD =           0.0000     CHD             

            TOTAL IN =      324442.0441              TOTAL IN =          92.5412

          OUT:                                     OUT:
          ----                                     ----
              STO-SS =          79.9035                STO-SS =       6.3928E-02     STORAGE         
              STO-SY =       52180.1076                STO-SY =          41.3504     STORAGE         
                 RCH =           0.0000                   RCH =           0.0000     RCHA            
                 CHD =      272181.3982                   CHD =          51.1304     CHD             

           TOTAL OUT =      324441.4093             TOTAL OUT =          92.5447

            IN - OUT =           0.6348              IN - OUT =      -3.5404E-03

 PERCENT DISCREPANCY =           0.00     PERCENT DISCREPANCY =          -0.00




         TIME SUMMARY AT END OF TIME STEP   10 IN STRESS PERIOD   54
                    SECONDS     MINUTES      HOURS       DAYS        YEARS
                    -----------------------------------------------------------
   TIME STEP LENGTH 2.59200E+05  4320.0      72.000      3.0000     8.21355E-03
 STRESS PERIOD TIME 2.59200E+06  43200.      720.00      30.000     8.21355E-02
         TOTAL TIME 1.37462E+08 2.29104E+06  38184.      1591.0      4.3559    

 OUTPUT CONTROL FOR STRESS PERIOD 55 IS REPEATED USING SETTINGS FROM A PREVIOUS STRESS PERIOD.


 STRESS PERIOD 55 IS TRANSIENT


                 RECHARGE =  0.5479452E-03
 UBDSV1 SAVING           STO-SS ON UNIT   1016 AT TIME STEP      1, STRESS PERIOD     55
 UBDSV1 SAVING           STO-SY ON UNIT   1016 AT TIME STEP      1, STRESS PERIOD     55
 UBDSV1 SAVING     FLOW-JA-FACE ON UNIT   1016 AT TIME STEP      1, STRESS PERIOD     55
 UBDSV06 SAVING              RCH IN MODEL TEST_TRANS       PACKAGE TEST_TRANS      CONNECTED TO MODEL TEST_TRANS       PACKAGE RCHA             ON UNIT   1016 AT TIME STEP      1, STRESS PERIOD     55
 UBDSV06 SAVING              CHD IN MODEL TEST_TRANS       PACKAGE TEST_TRANS      CONNECTED TO MODEL TEST_TRANS       PACKAGE CHD              ON UNIT   1016 AT TIME STEP      1, STRESS PERIOD     55
1
  HEAD IN LAYER   1 AT END OF TIME STEP   1 IN STRESS PERIOD   55
  ---------------------------------------------------------------------------

            1           2           3           4           5           6           7           8           9          10
           11          12          13          14          15          16          17          18          19          20
           21          22          23          24          25          26          27          28          29          30
 ........................................................................................................................
   1    27.72       27.72       27.71       27.70       27.68       27.66       27.64       27.62       27.59       27.55    
        27.52       27.48       27.43       27.39       27.34       27.29       27.24       27.19       27.14       27.08    
        27.02       26.96       26.90       26.83       26.74       26.64       26.50       26.31       26.01       25.49    
   2    27.72       27.72       27.71       27.70       27.68       27.66       27.64       27.62       27.59       27.55    
        27.52       27.48       27.43       27.39       27.34       27.29       27.24       27.19       27.14       27.08    
        27.02       26.96       26.90       26.83       26.74       26.64       26.50       26.31       26.01       25.49    
   3    27.72       27.72       27.71       27.70       27.68       27.66       27.64       27.62       27.59       27.55    
        27.52       27.48       27.43       27.39       27.34       27.29       27.24       27.19       27.14       27.08    
        27.02       26.96       26.90       26.83       26.74       26.64       26.50       26.31       26.01       25.49    
   4    27.72       27.72       27.71       27.70       27.68       27.66       27.64       27.62       27.59       27.55    
        27.52       27.48       27.43       27.39       27.34       27.29       27.24       27.19       27.14       27.08    
        27.02       26.96       26.90       26.83       26.74       26.64       26.50       26.31       26.01       25.49    
   5    27.72       27.72       27.71       27.70       27.68       27.66       27.64       27.62       27.59       27.55    
        27.52       27.48       27.43       27.39       27.34       27.29       27.24       27.19       27.14       27.08    
        27.02       26.96       26.90       26.83       26.74       26.64       26.50       26.31       26.01       25.49    
   6    27.72       27.72       27.71       27.70       27.68       27.66       27.64       27.62       27.59       27.55    
        27.52       27.48       27.43       27.39       27.34       27.29       27.24       27.19       27.14       27.08    
        27.02       26.96       26.90       26.83       26.74       26.64       26.50       26.31       26.01       25.49    
   7    27.72       27.72       27.71       27.70       27.68       27.66       27.64       27.62       27.59       27.55    
        27.52       27.48       27.43       27.39       27.34       27.29       27.24       27.19       27.14       27.08    
        27.02       26.96       26.90       26.83       26.74       26.64       26.50       26.31       26.01       25.49    
   8    27.72       27.72       27.71       27.70       27.68       27.66       27.64       27.62       27.59       27.55    
        27.52       27.48       27.43       27.39       27.34       27.29       27.24       27.19       27.14       27.08    
        27.02       26.96       26.90       26.83       26.74       26.64       26.50       26.31       26.01       25.49    
   9    27.72       27.72       27.71       27.70       27.68       27.66       27.64       27.62       27.59       27.55    
        27.52       27.48       27.43       27.39       27.34       27.29       27.24       27.19       27.14       27.08    
        27.02       26.96       26.90       26.83       26.74       26.64       26.50       26.31       26.01       25.49    
  10    27.72       27.72       27.71       27.70       27.68       27.66       27.64       27.62       27.59       27.55    
        27.52       27.48       27.43       27.39       27.34       27.29       27.24       27.19       27.14       27.08    
        27.02       26.96       26.90       26.83       26.74       26.64       26.50       26.31       26.01       25.49    
  11    27.72       27.72       27.71       27.70       27.68       27.66       27.64       27.62       27.59       27.55    
        27.52       27.48       27.43       27.39       27.34       27.29       27.24       27.19       27.14       27.08    
        27.02       26.96       26.90       26.83       26.74       26.64       26.50       26.31       26.01       25.49    
  12    27.72       27.72       27.71       27.70       27.68       27.66       27.64       27.62       27.59       27.55    
        27.52       27.48       27.43       27.39       27.34       27.29       27.24       27.19       27.14       27.08    
        27.02       26.96       26.90       26.83       26.74       26.64       26.50       26.31       26.01       25.49    
  13    27.72       27.72       27.71       27.70       27.68       27.66       27.64       27.62       27.59       27.55    
        27.52       27.48       27.43       27.39       27.34       27.29       27.24       27.19       27.14       27.08    
        27.02       26.96       26.90       26.83       26.74       26.64       26.50       26.31       26.01       25.49    
  14    27.72       27.72       27.71       27.70       27.68       27.66       27.64       27.62       27.59       27.55    
        27.52       27.48       27.43       27.39       27.34       27.29       27.24       27.19       27.14       27.08    
        27.02       26.96       26.90       26.83       26.74       26.64       26.50       26.31       26.01       25.49    
  15    27.72       27.72       27.71       27.70       27.68       27.66       27.64       27.62       27.59       27.55    
        27.52       27.48       27.43       27.39       27.34       27.29       27.24       27.19       27.14       27.08    
        27.02       26.96       26.90       26.83       26.74       26.64       26.50       26.31       26.01       25.49    
  16    27.72       27.72       27.71       27.70       27.68       27.66       27.64       27.62       27.59       27.55    
        27.52       27.48       27.43       27.39       27.34       27.29       27.24       27.19       27.14       27.08    
        27.02       26.96       26.90       26.83       26.74       26.64       26.50       26.31       26.01       25.49    
  17    27.72       27.72       27.71       27.70       27.68       27.66       27.64       27.62       27.59       27.55    
        27.52       27.48       27.43       27.39       27.34       27.29       27.24       27.19       27.14       27.08    
        27.02       26.96       26.90       26.83       26.74       26.64       26.50       26.31       26.01       25.49    
  18    27.72       27.72       27.71       27.70       27.68       27.66       27.64       27.62       27.59       27.55    
        27.52       27.48       27.43       27.39       27.34       27.29       27.24       27.19       27.14       27.08    
        27.02       26.96       26.90       26.83       26.74       26.64       26.50       26.31       26.01       25.49    
  19    27.72       27.72       27.71       27.70       27.68       27.66       27.64       27.62       27.59       27.55    
        27.52       27.48       27.43       27.39       27.34       27.29       27.24       27.19       27.14       27.08    
        27.02       26.96       26.90       26.83       26.74       26.64       26.50       26.31       26.01       25.49    
  20    27.72       27.72       27.71       27.70       27.68       27.66       27.64       27.62       27.59       27.55    
        27.52       27.48       27.43       27.39       27.34       27.29       27.24       27.19       27.14       27.08    
        27.02       26.96       26.90       26.83       26.74       26.64       26.50       26.31       26.01       25.49    
  21    27.72       27.72       27.71       27.70       27.68       27.66       27.64       27.62       27.59       27.55    
        27.52       27.48       27.43       27.39       27.34       27.29       27.24       27.19       27.14       27.08    
        27.02       26.96       26.90       26.83       26.74       26.64       26.50       26.31       26.01       25.49    
  22    27.72       27.72       27.71       27.70       27.68       27.66       27.64       27.62       27.59       27.55    
        27.52       27.48       27.43       27.39       27.34       27.29       27.24       27.19       27.14       27.08    
        27.02       26.96       26.90       26.83       26.74       26.64       26.50       26.31       26.01       25.49    
  23    27.72       27.72       27.71       27.70       27.68       27.66       27.64       27.62       27.59       27.55    
        27.52       27.48       27.43       27.39       27.34       27.29       27.24       27.19       27.14       27.08    
        27.02       26.96       26.90       26.83       26.74       26.64       26.50       26.31       26.01       25.49    
  24    27.72       27.72       27.71       27.70       27.68       27.66       27.64       27.62       27.59       27.55    
        27.52       27.48       27.43       27.39       27.34       27.29       27.24       27.19       27.14       27.08    
        27.02       26.96       26.90       26.83       26.74       26.64       26.50       26.31       26.01       25.49    
  25    27.72       27.72       27.71       27.70       27.68       27.66       27.64       27.62       27.59       27.55    
        27.52       27.48       27.43       27.39       27.34       27.29       27.24       27.19       27.14       27.08    
        27.02       26.96       26.90       26.83       26.74       26.64       26.50       26.31       26.01       25.49    
  26    27.72       27.72       27.71       27.70       27.68       27.66       27.64       27.62       27.59       27.55    
        27.52       27.48       27.43       27.39       27.34       27.29       27.24       27.19       27.14       27.08    
        27.02       26.96       26.90       26.83       26.74       26.64       26.50       26.31       26.01       25.49    
  27    27.72       27.72       27.71       27.70       27.68       27.66       27.64       27.62       27.59       27.55    
        27.52       27.48       27.43       27.39       27.34       27.29       27.24       27.19       27.14       27.08    
        27.02       26.96       26.90       26.83       26.74       26.64       26.50       26.31       26.01       25.49    
  28    27.72       27.72       27.71       27.70       27.68       27.66       27.64       27.62       27.59       27.55    
        27.52       27.48       27.43       27.39       27.34       27.29       27.24       27.19       27.14       27.08    
        27.02       26.96       26.90       26.83       26.74       26.64       26.50       26.31       26.01       25.49    
  29    27.72       27.72       27.71       27.70       27.68       27.66       27.64       27.62       27.59       27.55    
        27.52       27.48       27.43       27.39       27.34       27.29       27.24       27.19       27.14       27.08    
        27.02       26.96       26.90       26.83       26.74       26.64       26.50       26.31       26.01       25.49    
  30    27.72       27.72       27.71       27.70       27.68       27.66       27.64       27.62       27.59       27.55    
        27.52       27.48       27.43       27.39       27.34       27.29       27.24       27.19       27.14       27.08    
        27.02       26.96       26.90       26.83       26.74       26.64       26.50       26.31       26.01       25.49    

 HEAD WILL BE SAVED ON UNIT 1017 AT END OF TIME STEP    1, STRESS PERIOD   55



         TIME SUMMARY AT END OF TIME STEP    1 IN STRESS PERIOD   55
                    SECONDS     MINUTES      HOURS       DAYS        YEARS
                    -----------------------------------------------------------
   TIME STEP LENGTH 2.59200E+05  4320.0      72.000      3.0000     8.21355E-03
 STRESS PERIOD TIME 2.59200E+05  4320.0      72.000      3.0000     8.21355E-03
         TOTAL TIME 1.37722E+08 2.29536E+06  38256.      1594.0      4.3641    
 UBDSV1 SAVING           STO-SS ON UNIT   1016 AT TIME STEP      2, STRESS PERIOD     55
 UBDSV1 SAVING           STO-SY ON UNIT   1016 AT TIME STEP      2, STRESS PERIOD     55
 UBDSV1 SAVING     FLOW-JA-FACE ON UNIT   1016 AT TIME STEP      2, STRESS PERIOD     55
 UBDSV06 SAVING              RCH IN MODEL TEST_TRANS       PACKAGE TEST_TRANS      CONNECTED TO MODEL TEST_TRANS       PACKAGE RCHA             ON UNIT   1016 AT TIME STEP      2, STRESS PERIOD     55
 UBDSV06 SAVING              CHD IN MODEL TEST_TRANS       PACKAGE TEST_TRANS      CONNECTED TO MODEL TEST_TRANS       PACKAGE CHD              ON UNIT   1016 AT TIME STEP      2, STRESS PERIOD     55

 HEAD WILL BE SAVED ON UNIT 1017 AT END OF TIME STEP    2, STRESS PERIOD   55
 UBDSV1 SAVING           STO-SS ON UNIT   1016 AT TIME STEP      3, STRESS PERIOD     55
 UBDSV1 SAVING           STO-SY ON UNIT   1016 AT TIME STEP      3, STRESS PERIOD     55
 UBDSV1 SAVING     FLOW-JA-FACE ON UNIT   1016 AT TIME STEP      3, STRESS PERIOD     55
 UBDSV06 SAVING              RCH IN MODEL TEST_TRANS       PACKAGE TEST_TRANS      CONNECTED TO MODEL TEST_TRANS       PACKAGE RCHA             ON UNIT   1016 AT TIME STEP      3, STRESS PERIOD     55
 UBDSV06 SAVING              CHD IN MODEL TEST_TRANS       PACKAGE TEST_TRANS      CONNECTED TO MODEL TEST_TRANS       PACKAGE CHD              ON UNIT   1016 AT TIME STEP      3, STRESS PERIOD     55

 HEAD WILL BE SAVED ON UNIT 1017 AT END OF TIME STEP    3, STRESS PERIOD   55
 UBDSV1 SAVING           STO-SS ON UNIT   1016 AT TIME STEP      4, STRESS PERIOD     55
 UBDSV1 SAVING           STO-SY ON UNIT   1016 AT TIME STEP      4, STRESS PERIOD     55
 UBDSV1 SAVING     FLOW-JA-FACE ON UNIT   1016 AT TIME STEP      4, STRESS PERIOD     55
 UBDSV06 SAVING              RCH IN MODEL TEST_TRANS       PACKAGE TEST_TRANS      CONNECTED TO MODEL TEST_TRANS       PACKAGE RCHA             ON UNIT   1016 AT TIME STEP      4, STRESS PERIOD     55
 UBDSV06 SAVING              CHD IN MODEL TEST_TRANS       PACKAGE TEST_TRANS      CONNECTED TO MODEL TEST_TRANS       PACKAGE CHD              ON UNIT   1016 AT TIME STEP      4, STRESS PERIOD     55

 HEAD WILL BE SAVED ON UNIT 1017 AT END OF TIME STEP    4, STRESS PERIOD   55
 UBDSV1 SAVING           STO-SS ON UNIT   1016 AT TIME STEP      5, STRESS PERIOD     55
 UBDSV1 SAVING           STO-SY ON UNIT   1016 AT TIME STEP      5, STRESS PERIOD     55
 UBDSV1 SAVING     FLOW-JA-FACE ON UNIT   1016 AT TIME STEP      5, STRESS PERIOD     55
 UBDSV06 SAVING              RCH IN MODEL TEST_TRANS       PACKAGE TEST_TRANS      CONNECTED TO MODEL TEST_TRANS       PACKAGE RCHA             ON UNIT   1016 AT TIME STEP      5, STRESS PERIOD     55
 UBDSV06 SAVING              CHD IN MODEL TEST_TRANS       PACKAGE TEST_TRANS      CONNECTED TO MODEL TEST_TRANS       PACKAGE CHD              ON UNIT   1016 AT TIME STEP      5, STRESS PERIOD     55

 HEAD WILL BE SAVED ON UNIT 1017 AT END OF TIME STEP    5, STRESS PERIOD   55
 UBDSV1 SAVING           STO-SS ON UNIT   1016 AT TIME STEP      6, STRESS PERIOD     55
 UBDSV1 SAVING           STO-SY ON UNIT   1016 AT TIME STEP      6, STRESS PERIOD     55
 UBDSV1 SAVING     FLOW-JA-FACE ON UNIT   1016 AT TIME STEP      6, STRESS PERIOD     55
 UBDSV06 SAVING              RCH IN MODEL TEST_TRANS       PACKAGE TEST_TRANS      CONNECTED TO MODEL TEST_TRANS       PACKAGE RCHA             ON UNIT   1016 AT TIME STEP      6, STRESS PERIOD     55
 UBDSV06 SAVING              CHD IN MODEL TEST_TRANS       PACKAGE TEST_TRANS      CONNECTED TO MODEL TEST_TRANS       PACKAGE CHD              ON UNIT   1016 AT TIME STEP      6, STRESS PERIOD     55

 HEAD WILL BE SAVED ON UNIT 1017 AT END OF TIME STEP    6, STRESS PERIOD   55
 UBDSV1 SAVING           STO-SS ON UNIT   1016 AT TIME STEP      7, STRESS PERIOD     55
 UBDSV1 SAVING           STO-SY ON UNIT   1016 AT TIME STEP      7, STRESS PERIOD     55
 UBDSV1 SAVING     FLOW-JA-FACE ON UNIT   1016 AT TIME STEP      7, STRESS PERIOD     55
 UBDSV06 SAVING              RCH IN MODEL TEST_TRANS       PACKAGE TEST_TRANS      CONNECTED TO MODEL TEST_TRANS       PACKAGE RCHA             ON UNIT   1016 AT TIME STEP      7, STRESS PERIOD     55
 UBDSV06 SAVING              CHD IN MODEL TEST_TRANS       PACKAGE TEST_TRANS      CONNECTED TO MODEL TEST_TRANS       PACKAGE CHD              ON UNIT   1016 AT TIME STEP      7, STRESS PERIOD     55

 HEAD WILL BE SAVED ON UNIT 1017 AT END OF TIME STEP    7, STRESS PERIOD   55
 UBDSV1 SAVING           STO-SS ON UNIT   1016 AT TIME STEP      8, STRESS PERIOD     55
 UBDSV1 SAVING           STO-SY ON UNIT   1016 AT TIME STEP      8, STRESS PERIOD     55
 UBDSV1 SAVING     FLOW-JA-FACE ON UNIT   1016 AT TIME STEP      8, STRESS PERIOD     55
 UBDSV06 SAVING              RCH IN MODEL TEST_TRANS       PACKAGE TEST_TRANS      CONNECTED TO MODEL TEST_TRANS       PACKAGE RCHA             ON UNIT   1016 AT TIME STEP      8, STRESS PERIOD     55
 UBDSV06 SAVING              CHD IN MODEL TEST_TRANS       PACKAGE TEST_TRANS      CONNECTED TO MODEL TEST_TRANS       PACKAGE CHD              ON UNIT   1016 AT TIME STEP      8, STRESS PERIOD     55

 HEAD WILL BE SAVED ON UNIT 1017 AT END OF TIME STEP    8, STRESS PERIOD   55
 UBDSV1 SAVING           STO-SS ON UNIT   1016 AT TIME STEP      9, STRESS PERIOD     55
 UBDSV1 SAVING           STO-SY ON UNIT   1016 AT TIME STEP      9, STRESS PERIOD     55
 UBDSV1 SAVING     FLOW-JA-FACE ON UNIT   1016 AT TIME STEP      9, STRESS PERIOD     55
 UBDSV06 SAVING              RCH IN MODEL TEST_TRANS       PACKAGE TEST_TRANS      CONNECTED TO MODEL TEST_TRANS       PACKAGE RCHA             ON UNIT   1016 AT TIME STEP      9, STRESS PERIOD     55
 UBDSV06 SAVING              CHD IN MODEL TEST_TRANS       PACKAGE TEST_TRANS      CONNECTED TO MODEL TEST_TRANS       PACKAGE CHD              ON UNIT   1016 AT TIME STEP      9, STRESS PERIOD     55

 HEAD WILL BE SAVED ON UNIT 1017 AT END OF TIME STEP    9, STRESS PERIOD   55
 UBDSV1 SAVING           STO-SS ON UNIT   1016 AT TIME STEP     10, STRESS PERIOD     55
 UBDSV1 SAVING           STO-SY ON UNIT   1016 AT TIME STEP     10, STRESS PERIOD     55
 UBDSV1 SAVING     FLOW-JA-FACE ON UNIT   1016 AT TIME STEP     10, STRESS PERIOD     55
 UBDSV06 SAVING              RCH IN MODEL TEST_TRANS       PACKAGE TEST_TRANS      CONNECTED TO MODEL TEST_TRANS       PACKAGE RCHA             ON UNIT   1016 AT TIME STEP     10, STRESS PERIOD     55
 UBDSV06 SAVING              CHD IN MODEL TEST_TRANS       PACKAGE TEST_TRANS      CONNECTED TO MODEL TEST_TRANS       PACKAGE CHD              ON UNIT   1016 AT TIME STEP     10, STRESS PERIOD     55
1
  HEAD IN LAYER   1 AT END OF TIME STEP  10 IN STRESS PERIOD   55
  ---------------------------------------------------------------------------

            1           2           3           4           5           6           7           8           9          10
           11          12          13          14          15          16          17          18          19          20
           21          22          23          24          25          26          27          28          29          30
 ........................................................................................................................
   1    27.61       27.61       27.60       27.59       27.58       27.56       27.54       27.52       27.49       27.46    
        27.42       27.38       27.34       27.29       27.24       27.18       27.12       27.05       26.97       26.89    
        26.80       26.70       26.59       26.47       26.34       26.20       26.05       25.88       25.70       25.49    
   2    27.61       27.61       27.60       27.59       27.58       27.56       27.54       27.52       27.49       27.46    
        27.42       27.38       27.34       27.29       27.24       27.18       27.12       27.05       26.97       26.89    
        26.80       26.70       26.59       26.47       26.34       26.20       26.05       25.88       25.70       25.49    
   3    27.61       27.61       27.60       27.59       27.58       27.56       27.54       27.52       27.49       27.46    
        27.42       27.38       27.34       27.29       27.24       27.18       27.12       27.05       26.97       26.89    
        26.80       26.70       26.59       26.47       26.34       26.20       26.05       25.88       25.70       25.49    
   4    27.61       27.61       27.60       27.59       27.58       27.56       27.54       27.52       27.49       27.46    
        27.42       27.38       27.34       27.29       27.24       27.18       27.12       27.05       26.97       26.89    
        26.80       26.70       26.59       26.47       26.34       26.20       26.05       25.88       25.70       25.49    
   5    27.61       27.61       27.60       27.59       27.58       27.56       27.54       27.52       27.49       27.46    
        27.42       27.38       27.34       27.29       27.24       27.18       27.12       27.05       26.97       26.89    
        26.80       26.70       26.59       26.47       26.34       26.20       26.05       25.88       25.70       25.49    
   6    27.61       27.61       27.60       27.59       27.58       27.56       27.54       27.52       27.49       27.46    
        27.42       27.38       27.34       27.29       27.24       27.18       27.12       27.05       26.97       26.89    
        26.80       26.70       26.59       26.47       26.34       26.20       26.05       25.88       25.70       25.49    
   7    27.61       27.61       27.60       27.59       27.58       27.56       27.54       27.52       27.49       27.46    
        27.42       27.38       27.34       27.29       27.24       27.18       27.12       27.05       26.97       26.89    
        26.80       26.70       26.59       26.47       26.34       26.20       26.05       25.88       25.70       25.49    
   8    27.61       27.61       27.60       27.59       27.58       27.56       27.54       27.52       27.49       27.46    
        27.42       27.38       27.34       27.29       27.24       27.18       27.12       27.05       26.97       26.89    
        26.80       26.70       26.59       26.47       26.34       26.20       26.05       25.88       25.70       25.49    
   9    27.61       27.61       27.60       27.59       27.58       27.56       27.54       27.52       27.49       27.46    
        27.42       27.38       27.34       27.29       27.24       27.18       27.12       27.05       26.97       26.89    
        26.80       26.70       26.59       26.47       26.34       26.20       26.05       25.88       25.70       25.49    
  10    27.61       27.61       27.60       27.59       27.58       27.56       27.54       27.52       27.49       27.46    
        27.42       27.38       27.34       27.29       27.24       27.18       27.12       27.05       26.97       26.89    
        26.80       26.70       26.59       26.47       26.34       26.20       26.05       25.88       25.70       25.49    
  11    27.61       27.61       27.60       27.59       27.58       27.56       27.54       27.52       27.49       27.46    
        27.42       27.38       27.34       27.29       27.24       27.18       27.12       27.05       26.97       26.89    
        26.80       26.70       26.59       26.47       26.34       26.20       26.05       25.88       25.70       25.49    
  12    27.61       27.61       27.60       27.59       27.58       27.56       27.54       27.52       27.49       27.46    
        27.42       27.38       27.34       27.29       27.24       27.18       27.12       27.05       26.97       26.89    
        26.80       26.70       26.59       26.47       26.34       26.20       26.05       25.88       25.70       25.49    
  13    27.61       27.61       27.60       27.59       27.58       27.56       27.54       27.52       27.49       27.46    
        27.42       27.38       27.34       27.29       27.24       27.18       27.12       27.05       26.97       26.89    
        26.80       26.70       26.59       26.47       26.34       26.20       26.05       25.88       25.70       25.49    
  14    27.61       27.61       27.60       27.59       27.58       27.56       27.54       27.52       27.49       27.46    
        27.42       27.38       27.34       27.29       27.24       27.18       27.12       27.05       26.97       26.89    
        26.80       26.70       26.59       26.47       26.34       26.20       26.05       25.88       25.70       25.49    
  15    27.61       27.61       27.60       27.59       27.58       27.56       27.54       27.52       27.49       27.46    
        27.42       27.38       27.34       27.29       27.24       27.18       27.12       27.05       26.97       26.89    
        26.80       26.70       26.59       26.47       26.34       26.20       26.05       25.88       25.70       25.49    
  16    27.61       27.61       27.60       27.59       27.58       27.56       27.54       27.52       27.49       27.46    
        27.42       27.38       27.34       27.29       27.24       27.18       27.12       27.05       26.97       26.89    
        26.80       26.70       26.59       26.47       26.34       26.20       26.05       25.88       25.70       25.49    
  17    27.61       27.61       27.60       27.59       27.58       27.56       27.54       27.52       27.49       27.46    
        27.42       27.38       27.34       27.29       27.24       27.18       27.12       27.05       26.97       26.89    
        26.80       26.70       26.59       26.47       26.34       26.20       26.05       25.88       25.70       25.49    
  18    27.61       27.61       27.60       27.59       27.58       27.56       27.54       27.52       27.49       27.46    
        27.42       27.38       27.34       27.29       27.24       27.18       27.12       27.05       26.97       26.89    
        26.80       26.70       26.59       26.47       26.34       26.20       26.05       25.88       25.70       25.49    
  19    27.61       27.61       27.60       27.59       27.58       27.56       27.54       27.52       27.49       27.46    
        27.42       27.38       27.34       27.29       27.24       27.18       27.12       27.05       26.97       26.89    
        26.80       26.70       26.59       26.47       26.34       26.20       26.05       25.88       25.70       25.49    
  20    27.61       27.61       27.60       27.59       27.58       27.56       27.54       27.52       27.49       27.46    
        27.42       27.38       27.34       27.29       27.24       27.18       27.12       27.05       26.97       26.89    
        26.80       26.70       26.59       26.47       26.34       26.20       26.05       25.88       25.70       25.49    
  21    27.61       27.61       27.60       27.59       27.58       27.56       27.54       27.52       27.49       27.46    
        27.42       27.38       27.34       27.29       27.24       27.18       27.12       27.05       26.97       26.89    
        26.80       26.70       26.59       26.47       26.34       26.20       26.05       25.88       25.70       25.49    
  22    27.61       27.61       27.60       27.59       27.58       27.56       27.54       27.52       27.49       27.46    
        27.42       27.38       27.34       27.29       27.24       27.18       27.12       27.05       26.97       26.89    
        26.80       26.70       26.59       26.47       26.34       26.20       26.05       25.88       25.70       25.49    
  23    27.61       27.61       27.60       27.59       27.58       27.56       27.54       27.52       27.49       27.46    
        27.42       27.38       27.34       27.29       27.24       27.18       27.12       27.05       26.97       26.89    
        26.80       26.70       26.59       26.47       26.34       26.20       26.05       25.88       25.70       25.49    
  24    27.61       27.61       27.60       27.59       27.58       27.56       27.54       27.52       27.49       27.46    
        27.42       27.38       27.34       27.29       27.24       27.18       27.12       27.05       26.97       26.89    
        26.80       26.70       26.59       26.47       26.34       26.20       26.05       25.88       25.70       25.49    
  25    27.61       27.61       27.60       27.59       27.58       27.56       27.54       27.52       27.49       27.46    
        27.42       27.38       27.34       27.29       27.24       27.18       27.12       27.05       26.97       26.89    
        26.80       26.70       26.59       26.47       26.34       26.20       26.05       25.88       25.70       25.49    
  26    27.61       27.61       27.60       27.59       27.58       27.56       27.54       27.52       27.49       27.46    
        27.42       27.38       27.34       27.29       27.24       27.18       27.12       27.05       26.97       26.89    
        26.80       26.70       26.59       26.47       26.34       26.20       26.05       25.88       25.70       25.49    
  27    27.61       27.61       27.60       27.59       27.58       27.56       27.54       27.52       27.49       27.46    
        27.42       27.38       27.34       27.29       27.24       27.18       27.12       27.05       26.97       26.89    
        26.80       26.70       26.59       26.47       26.34       26.20       26.05       25.88       25.70       25.49    
  28    27.61       27.61       27.60       27.59       27.58       27.56       27.54       27.52       27.49       27.46    
        27.42       27.38       27.34       27.29       27.24       27.18       27.12       27.05       26.97       26.89    
        26.80       26.70       26.59       26.47       26.34       26.20       26.05       25.88       25.70       25.49    
  29    27.61       27.61       27.60       27.59       27.58       27.56       27.54       27.52       27.49       27.46    
        27.42       27.38       27.34       27.29       27.24       27.18       27.12       27.05       26.97       26.89    
        26.80       26.70       26.59       26.47       26.34       26.20       26.05       25.88       25.70       25.49    
  30    27.61       27.61       27.60       27.59       27.58       27.56       27.54       27.52       27.49       27.46    
        27.42       27.38       27.34       27.29       27.24       27.18       27.12       27.05       26.97       26.89    
        26.80       26.70       26.59       26.47       26.34       26.20       26.05       25.88       25.70       25.49    

 HEAD WILL BE SAVED ON UNIT 1017 AT END OF TIME STEP   10, STRESS PERIOD   55


  VOLUME BUDGET FOR ENTIRE MODEL AT END OF TIME STEP   10, STRESS PERIOD  55
  ---------------------------------------------------------------------------------------------------

     CUMULATIVE VOLUME      L**3       RATES FOR THIS TIME STEP      L**3/T          PACKAGE NAME    
     ------------------                 ------------------------                     ----------------

           IN:                                      IN:
           ---                                      ---
              STO-SS =          90.9938                STO-SS =           0.1356     STORAGE         
              STO-SY =       58850.8427                STO-SY =          87.3994     STORAGE         
                 RCH =      265171.3526                   RCH =          47.6712     RCHA            
                 CHD =        6024.4094                   CHD =           0.0000     CHD             

            TOTAL IN =      330137.5985              TOTAL IN =         135.2062

          OUT:                                     OUT:
          ----                                     ----
              STO-SS =          79.9146                STO-SS =           0.0000     STORAGE         
              STO-SY =       52187.1593                STO-SY =           0.0000     STORAGE         
                 RCH =           0.0000                   RCH =           0.0000     RCHA            
                 CHD =      277869.7712                   CHD =         135.1981     CHD             

           TOTAL OUT =      330136.8450             TOTAL OUT =         135.1981

            IN - OUT =           0.7535              IN - OUT =       8.0972E-03

 PERCENT DISCREPANCY =           0.00     PERCENT DISCREPANCY =           0.01




         TIME SUMMARY AT END OF TIME STEP   10 IN STRESS PERIOD   55
                    SECONDS     MINUTES      HOURS       DAYS        YEARS
                    -----------------------------------------------------------
   TIME STEP LENGTH 2.59200E+05  4320.0      72.000      3.0000     8.21355E-03
 STRESS PERIOD TIME 2.59200E+06  43200.      720.00      30.000     8.21355E-02
         TOTAL TIME 1.40054E+08 2.33424E+06  38904.      1621.0      4.4381    

 OUTPUT CONTROL FOR STRESS PERIOD 56 IS REPEATED USING SETTINGS FROM A PREVIOUS STRESS PERIOD.


 STRESS PERIOD 56 IS TRANSIENT


                 RECHARGE =  0.1095890E-02
 UBDSV1 SAVING           STO-SS ON UNIT   1016 AT TIME STEP      1, STRESS PERIOD     56
 UBDSV1 SAVING           STO-SY ON UNIT   1016 AT TIME STEP      1, STRESS PERIOD     56
 UBDSV1 SAVING     FLOW-JA-FACE ON UNIT   1016 AT TIME STEP      1, STRESS PERIOD     56
 UBDSV06 SAVING              RCH IN MODEL TEST_TRANS       PACKAGE TEST_TRANS      CONNECTED TO MODEL TEST_TRANS       PACKAGE RCHA             ON UNIT   1016 AT TIME STEP      1, STRESS PERIOD     56
 UBDSV06 SAVING              CHD IN MODEL TEST_TRANS       PACKAGE TEST_TRANS      CONNECTED TO MODEL TEST_TRANS       PACKAGE CHD              ON UNIT   1016 AT TIME STEP      1, STRESS PERIOD     56
1
  HEAD IN LAYER   1 AT END OF TIME STEP   1 IN STRESS PERIOD   56
  ---------------------------------------------------------------------------

            1           2           3           4           5           6           7           8           9          10
           11          12          13          14          15          16          17          18          19          20
           21          22          23          24          25          26          27          28          29          30
 ........................................................................................................................
   1    27.61       27.60       27.60       27.59       27.57       27.56       27.54       27.51       27.48       27.45    
        27.42       27.38       27.33       27.28       27.23       27.17       27.11       27.04       26.96       26.87    
        26.78       26.68       26.57       26.45       26.31       26.16       25.99       25.79       25.54       25.20    
   2    27.61       27.60       27.60       27.59       27.57       27.56       27.54       27.51       27.48       27.45    
        27.42       27.38       27.33       27.28       27.23       27.17       27.11       27.04       26.96       26.87    
        26.78       26.68       26.57       26.45       26.31       26.16       25.99       25.79       25.54       25.20    
   3    27.61       27.60       27.60       27.59       27.57       27.56       27.54       27.51       27.48       27.45    
        27.42       27.38       27.33       27.28       27.23       27.17       27.11       27.04       26.96       26.87    
        26.78       26.68       26.57       26.45       26.31       26.16       25.99       25.79       25.54       25.20    
   4    27.61       27.60       27.60       27.59       27.57       27.56       27.54       27.51       27.48       27.45    
        27.42       27.38       27.33       27.28       27.23       27.17       27.11       27.04       26.96       26.87    
        26.78       26.68       26.57       26.45       26.31       26.16       25.99       25.79       25.54       25.20    
   5    27.61       27.60       27.60       27.59       27.57       27.56       27.54       27.51       27.48       27.45    
        27.42       27.38       27.33       27.28       27.23       27.17       27.11       27.04       26.96       26.87    
        26.78       26.68       26.57       26.45       26.31       26.16       25.99       25.79       25.54       25.20    
   6    27.61       27.60       27.60       27.59       27.57       27.56       27.54       27.51       27.48       27.45    
        27.42       27.38       27.33       27.28       27.23       27.17       27.11       27.04       26.96       26.87    
        26.78       26.68       26.57       26.45       26.31       26.16       25.99       25.79       25.54       25.20    
   7    27.61       27.60       27.60       27.59       27.57       27.56       27.54       27.51       27.48       27.45    
        27.42       27.38       27.33       27.28       27.23       27.17       27.11       27.04       26.96       26.87    
        26.78       26.68       26.57       26.45       26.31       26.16       25.99       25.79       25.54       25.20    
   8    27.61       27.60       27.60       27.59       27.57       27.56       27.54       27.51       27.48       27.45    
        27.42       27.38       27.33       27.28       27.23       27.17       27.11       27.04       26.96       26.87    
        26.78       26.68       26.57       26.45       26.31       26.16       25.99       25.79       25.54       25.20    
   9    27.61       27.60       27.60       27.59       27.57       27.56       27.54       27.51       27.48       27.45    
        27.42       27.38       27.33       27.28       27.23       27.17       27.11       27.04       26.96       26.87    
        26.78       26.68       26.57       26.45       26.31       26.16       25.99       25.79       25.54       25.20    
  10    27.61       27.60       27.60       27.59       27.57       27.56       27.54       27.51       27.48       27.45    
        27.42       27.38       27.33       27.28       27.23       27.17       27.11       27.04       26.96       26.87    
        26.78       26.68       26.57       26.45       26.31       26.16       25.99       25.79       25.54       25.20    
  11    27.61       27.60       27.60       27.59       27.57       27.56       27.54       27.51       27.48       27.45    
        27.42       27.38       27.33       27.28       27.23       27.17       27.11       27.04       26.96       26.87    
        26.78       26.68       26.57       26.45       26.31       26.16       25.99       25.79       25.54       25.20    
  12    27.61       27.60       27.60       27.59       27.57       27.56       27.54       27.51       27.48       27.45    
        27.42       27.38       27.33       27.28       27.23       27.17       27.11       27.04       26.96       26.87    
        26.78       26.68       26.57       26.45       26.31       26.16       25.99       25.79       25.54       25.20    
  13    27.61       27.60       27.60       27.59       27.57       27.56       27.54       27.51       27.48       27.45    
        27.42       27.38       27.33       27.28       27.23       27.17       27.11       27.04       26.96       26.87    
        26.78       26.68       26.57       26.45       26.31       26.16       25.99       25.79       25.54       25.20    
  14    27.61       27.60       27.60       27.59       27.57       27.56       27.54       27.51       27.48       27.45    
        27.42       27.38       27.33       27.28       27.23       27.17       27.11       27.04       26.96       26.87    
        26.78       26.68       26.57       26.45       26.31       26.16       25.99       25.79       25.54       25.20    
  15    27.61       27.60       27.60       27.59       27.57       27.56       27.54       27.51       27.48       27.45    
        27.42       27.38       27.33       27.28       27.23       27.17       27.11       27.04       26.96       26.87    
        26.78       26.68       26.57       26.45       26.31       26.16       25.99       25.79       25.54       25.20    
  16    27.61       27.60       27.60       27.59       27.57       27.56       27.54       27.51       27.48       27.45    
        27.42       27.38       27.33       27.28       27.23       27.17       27.11       27.04       26.96       26.87    
        26.78       26.68       26.57       26.45       26.31       26.16       25.99       25.79       25.54       25.20    
  17    27.61       27.60       27.60       27.59       27.57       27.56       27.54       27.51       27.48       27.45    
        27.42       27.38       27.33       27.28       27.23       27.17       27.11       27.04       26.96       26.87    
        26.78       26.68       26.57       26.45       26.31       26.16       25.99       25.79       25.54       25.20    
  18    27.61       27.60       27.60       27.59       27.57       27.56       27.54       27.51       27.48       27.45    
        27.42       27.38       27.33       27.28       27.23       27.17       27.11       27.04       26.96       26.87    
        26.78       26.68       26.57       26.45       26.31       26.16       25.99       25.79       25.54       25.20    
  19    27.61       27.60       27.60       27.59       27.57       27.56       27.54       27.51       27.48       27.45    
        27.42       27.38       27.33       27.28       27.23       27.17       27.11       27.04       26.96       26.87    
        26.78       26.68       26.57       26.45       26.31       26.16       25.99       25.79       25.54       25.20    
  20    27.61       27.60       27.60       27.59       27.57       27.56       27.54       27.51       27.48       27.45    
        27.42       27.38       27.33       27.28       27.23       27.17       27.11       27.04       26.96       26.87    
        26.78       26.68       26.57       26.45       26.31       26.16       25.99       25.79       25.54       25.20    
  21    27.61       27.60       27.60       27.59       27.57       27.56       27.54       27.51       27.48       27.45    
        27.42       27.38       27.33       27.28       27.23       27.17       27.11       27.04       26.96       26.87    
        26.78       26.68       26.57       26.45       26.31       26.16       25.99       25.79       25.54       25.20    
  22    27.61       27.60       27.60       27.59       27.57       27.56       27.54       27.51       27.48       27.45    
        27.42       27.38       27.33       27.28       27.23       27.17       27.11       27.04       26.96       26.87    
        26.78       26.68       26.57       26.45       26.31       26.16       25.99       25.79       25.54       25.20    
  23    27.61       27.60       27.60       27.59       27.57       27.56       27.54       27.51       27.48       27.45    
        27.42       27.38       27.33       27.28       27.23       27.17       27.11       27.04       26.96       26.87    
        26.78       26.68       26.57       26.45       26.31       26.16       25.99       25.79       25.54       25.20    
  24    27.61       27.60       27.60       27.59       27.57       27.56       27.54       27.51       27.48       27.45    
        27.42       27.38       27.33       27.28       27.23       27.17       27.11       27.04       26.96       26.87    
        26.78       26.68       26.57       26.45       26.31       26.16       25.99       25.79       25.54       25.20    
  25    27.61       27.60       27.60       27.59       27.57       27.56       27.54       27.51       27.48       27.45    
        27.42       27.38       27.33       27.28       27.23       27.17       27.11       27.04       26.96       26.87    
        26.78       26.68       26.57       26.45       26.31       26.16       25.99       25.79       25.54       25.20    
  26    27.61       27.60       27.60       27.59       27.57       27.56       27.54       27.51       27.48       27.45    
        27.42       27.38       27.33       27.28       27.23       27.17       27.11       27.04       26.96       26.87    
        26.78       26.68       26.57       26.45       26.31       26.16       25.99       25.79       25.54       25.20    
  27    27.61       27.60       27.60       27.59       27.57       27.56       27.54       27.51       27.48       27.45    
        27.42       27.38       27.33       27.28       27.23       27.17       27.11       27.04       26.96       26.87    
        26.78       26.68       26.57       26.45       26.31       26.16       25.99       25.79       25.54       25.20    
  28    27.61       27.60       27.60       27.59       27.57       27.56       27.54       27.51       27.48       27.45    
        27.42       27.38       27.33       27.28       27.23       27.17       27.11       27.04       26.96       26.87    
        26.78       26.68       26.57       26.45       26.31       26.16       25.99       25.79       25.54       25.20    
  29    27.61       27.60       27.60       27.59       27.57       27.56       27.54       27.51       27.48       27.45    
        27.42       27.38       27.33       27.28       27.23       27.17       27.11       27.04       26.96       26.87    
        26.78       26.68       26.57       26.45       26.31       26.16       25.99       25.79       25.54       25.20    
  30    27.61       27.60       27.60       27.59       27.57       27.56       27.54       27.51       27.48       27.45    
        27.42       27.38       27.33       27.28       27.23       27.17       27.11       27.04       26.96       26.87    
        26.78       26.68       26.57       26.45       26.31       26.16       25.99       25.79       25.54       25.20    

 HEAD WILL BE SAVED ON UNIT 1017 AT END OF TIME STEP    1, STRESS PERIOD   56



         TIME SUMMARY AT END OF TIME STEP    1 IN STRESS PERIOD   56
                    SECONDS     MINUTES      HOURS       DAYS        YEARS
                    -----------------------------------------------------------
   TIME STEP LENGTH 2.59200E+05  4320.0      72.000      3.0000     8.21355E-03
 STRESS PERIOD TIME 2.59200E+05  4320.0      72.000      3.0000     8.21355E-03
         TOTAL TIME 1.40314E+08 2.33856E+06  38976.      1624.0      4.4463    
 UBDSV1 SAVING           STO-SS ON UNIT   1016 AT TIME STEP      2, STRESS PERIOD     56
 UBDSV1 SAVING           STO-SY ON UNIT   1016 AT TIME STEP      2, STRESS PERIOD     56
 UBDSV1 SAVING     FLOW-JA-FACE ON UNIT   1016 AT TIME STEP      2, STRESS PERIOD     56
 UBDSV06 SAVING              RCH IN MODEL TEST_TRANS       PACKAGE TEST_TRANS      CONNECTED TO MODEL TEST_TRANS       PACKAGE RCHA             ON UNIT   1016 AT TIME STEP      2, STRESS PERIOD     56
 UBDSV06 SAVING              CHD IN MODEL TEST_TRANS       PACKAGE TEST_TRANS      CONNECTED TO MODEL TEST_TRANS       PACKAGE CHD              ON UNIT   1016 AT TIME STEP      2, STRESS PERIOD     56

 HEAD WILL BE SAVED ON UNIT 1017 AT END OF TIME STEP    2, STRESS PERIOD   56
 UBDSV1 SAVING           STO-SS ON UNIT   1016 AT TIME STEP      3, STRESS PERIOD     56
 UBDSV1 SAVING           STO-SY ON UNIT   1016 AT TIME STEP      3, STRESS PERIOD     56
 UBDSV1 SAVING     FLOW-JA-FACE ON UNIT   1016 AT TIME STEP      3, STRESS PERIOD     56
 UBDSV06 SAVING              RCH IN MODEL TEST_TRANS       PACKAGE TEST_TRANS      CONNECTED TO MODEL TEST_TRANS       PACKAGE RCHA             ON UNIT   1016 AT TIME STEP      3, STRESS PERIOD     56
 UBDSV06 SAVING              CHD IN MODEL TEST_TRANS       PACKAGE TEST_TRANS      CONNECTED TO MODEL TEST_TRANS       PACKAGE CHD              ON UNIT   1016 AT TIME STEP      3, STRESS PERIOD     56

 HEAD WILL BE SAVED ON UNIT 1017 AT END OF TIME STEP    3, STRESS PERIOD   56
 UBDSV1 SAVING           STO-SS ON UNIT   1016 AT TIME STEP      4, STRESS PERIOD     56
 UBDSV1 SAVING           STO-SY ON UNIT   1016 AT TIME STEP      4, STRESS PERIOD     56
 UBDSV1 SAVING     FLOW-JA-FACE ON UNIT   1016 AT TIME STEP      4, STRESS PERIOD     56
 UBDSV06 SAVING              RCH IN MODEL TEST_TRANS       PACKAGE TEST_TRANS      CONNECTED TO MODEL TEST_TRANS       PACKAGE RCHA             ON UNIT   1016 AT TIME STEP      4, STRESS PERIOD     56
 UBDSV06 SAVING              CHD IN MODEL TEST_TRANS       PACKAGE TEST_TRANS      CONNECTED TO MODEL TEST_TRANS       PACKAGE CHD              ON UNIT   1016 AT TIME STEP      4, STRESS PERIOD     56

 HEAD WILL BE SAVED ON UNIT 1017 AT END OF TIME STEP    4, STRESS PERIOD   56
 UBDSV1 SAVING           STO-SS ON UNIT   1016 AT TIME STEP      5, STRESS PERIOD     56
 UBDSV1 SAVING           STO-SY ON UNIT   1016 AT TIME STEP      5, STRESS PERIOD     56
 UBDSV1 SAVING     FLOW-JA-FACE ON UNIT   1016 AT TIME STEP      5, STRESS PERIOD     56
 UBDSV06 SAVING              RCH IN MODEL TEST_TRANS       PACKAGE TEST_TRANS      CONNECTED TO MODEL TEST_TRANS       PACKAGE RCHA             ON UNIT   1016 AT TIME STEP      5, STRESS PERIOD     56
 UBDSV06 SAVING              CHD IN MODEL TEST_TRANS       PACKAGE TEST_TRANS      CONNECTED TO MODEL TEST_TRANS       PACKAGE CHD              ON UNIT   1016 AT TIME STEP      5, STRESS PERIOD     56

 HEAD WILL BE SAVED ON UNIT 1017 AT END OF TIME STEP    5, STRESS PERIOD   56
 UBDSV1 SAVING           STO-SS ON UNIT   1016 AT TIME STEP      6, STRESS PERIOD     56
 UBDSV1 SAVING           STO-SY ON UNIT   1016 AT TIME STEP      6, STRESS PERIOD     56
 UBDSV1 SAVING     FLOW-JA-FACE ON UNIT   1016 AT TIME STEP      6, STRESS PERIOD     56
 UBDSV06 SAVING              RCH IN MODEL TEST_TRANS       PACKAGE TEST_TRANS      CONNECTED TO MODEL TEST_TRANS       PACKAGE RCHA             ON UNIT   1016 AT TIME STEP      6, STRESS PERIOD     56
 UBDSV06 SAVING              CHD IN MODEL TEST_TRANS       PACKAGE TEST_TRANS      CONNECTED TO MODEL TEST_TRANS       PACKAGE CHD              ON UNIT   1016 AT TIME STEP      6, STRESS PERIOD     56

 HEAD WILL BE SAVED ON UNIT 1017 AT END OF TIME STEP    6, STRESS PERIOD   56
 UBDSV1 SAVING           STO-SS ON UNIT   1016 AT TIME STEP      7, STRESS PERIOD     56
 UBDSV1 SAVING           STO-SY ON UNIT   1016 AT TIME STEP      7, STRESS PERIOD     56
 UBDSV1 SAVING     FLOW-JA-FACE ON UNIT   1016 AT TIME STEP      7, STRESS PERIOD     56
 UBDSV06 SAVING              RCH IN MODEL TEST_TRANS       PACKAGE TEST_TRANS      CONNECTED TO MODEL TEST_TRANS       PACKAGE RCHA             ON UNIT   1016 AT TIME STEP      7, STRESS PERIOD     56
 UBDSV06 SAVING              CHD IN MODEL TEST_TRANS       PACKAGE TEST_TRANS      CONNECTED TO MODEL TEST_TRANS       PACKAGE CHD              ON UNIT   1016 AT TIME STEP      7, STRESS PERIOD     56

 HEAD WILL BE SAVED ON UNIT 1017 AT END OF TIME STEP    7, STRESS PERIOD   56
 UBDSV1 SAVING           STO-SS ON UNIT   1016 AT TIME STEP      8, STRESS PERIOD     56
 UBDSV1 SAVING           STO-SY ON UNIT   1016 AT TIME STEP      8, STRESS PERIOD     56
 UBDSV1 SAVING     FLOW-JA-FACE ON UNIT   1016 AT TIME STEP      8, STRESS PERIOD     56
 UBDSV06 SAVING              RCH IN MODEL TEST_TRANS       PACKAGE TEST_TRANS      CONNECTED TO MODEL TEST_TRANS       PACKAGE RCHA             ON UNIT   1016 AT TIME STEP      8, STRESS PERIOD     56
 UBDSV06 SAVING              CHD IN MODEL TEST_TRANS       PACKAGE TEST_TRANS      CONNECTED TO MODEL TEST_TRANS       PACKAGE CHD              ON UNIT   1016 AT TIME STEP      8, STRESS PERIOD     56

 HEAD WILL BE SAVED ON UNIT 1017 AT END OF TIME STEP    8, STRESS PERIOD   56
 UBDSV1 SAVING           STO-SS ON UNIT   1016 AT TIME STEP      9, STRESS PERIOD     56
 UBDSV1 SAVING           STO-SY ON UNIT   1016 AT TIME STEP      9, STRESS PERIOD     56
 UBDSV1 SAVING     FLOW-JA-FACE ON UNIT   1016 AT TIME STEP      9, STRESS PERIOD     56
 UBDSV06 SAVING              RCH IN MODEL TEST_TRANS       PACKAGE TEST_TRANS      CONNECTED TO MODEL TEST_TRANS       PACKAGE RCHA             ON UNIT   1016 AT TIME STEP      9, STRESS PERIOD     56
 UBDSV06 SAVING              CHD IN MODEL TEST_TRANS       PACKAGE TEST_TRANS      CONNECTED TO MODEL TEST_TRANS       PACKAGE CHD              ON UNIT   1016 AT TIME STEP      9, STRESS PERIOD     56

 HEAD WILL BE SAVED ON UNIT 1017 AT END OF TIME STEP    9, STRESS PERIOD   56
 UBDSV1 SAVING           STO-SS ON UNIT   1016 AT TIME STEP     10, STRESS PERIOD     56
 UBDSV1 SAVING           STO-SY ON UNIT   1016 AT TIME STEP     10, STRESS PERIOD     56
 UBDSV1 SAVING     FLOW-JA-FACE ON UNIT   1016 AT TIME STEP     10, STRESS PERIOD     56
 UBDSV06 SAVING              RCH IN MODEL TEST_TRANS       PACKAGE TEST_TRANS      CONNECTED TO MODEL TEST_TRANS       PACKAGE RCHA             ON UNIT   1016 AT TIME STEP     10, STRESS PERIOD     56
 UBDSV06 SAVING              CHD IN MODEL TEST_TRANS       PACKAGE TEST_TRANS      CONNECTED TO MODEL TEST_TRANS       PACKAGE CHD              ON UNIT   1016 AT TIME STEP     10, STRESS PERIOD     56
1
  HEAD IN LAYER   1 AT END OF TIME STEP  10 IN STRESS PERIOD   56
  ---------------------------------------------------------------------------

            1           2           3           4           5           6           7           8           9          10
           11          12          13          14          15          16          17          18          19          20
           21          22          23          24          25          26          27          28          29          30
 ........................................................................................................................
   1    27.57       27.56       27.55       27.54       27.53       27.51       27.49       27.46       27.43       27.39    
        27.35       27.31       27.26       27.21       27.15       27.08       27.01       26.93       26.85       26.76    
        26.65       26.55       26.43       26.30       26.16       26.00       25.83       25.64       25.44       25.20    
   2    27.57       27.56       27.55       27.54       27.53       27.51       27.49       27.46       27.43       27.39    
        27.35       27.31       27.26       27.21       27.15       27.08       27.01       26.93       26.85       26.76    
        26.65       26.55       26.43       26.30       26.16       26.00       25.83       25.64       25.44       25.20    
   3    27.57       27.56       27.55       27.54       27.53       27.51       27.49       27.46       27.43       27.39    
        27.35       27.31       27.26       27.21       27.15       27.08       27.01       26.93       26.85       26.76    
        26.65       26.55       26.43       26.30       26.16       26.00       25.83       25.64       25.44       25.20    
   4    27.57       27.56       27.55       27.54       27.53       27.51       27.49       27.46       27.43       27.39    
        27.35       27.31       27.26       27.21       27.15       27.08       27.01       26.93       26.85       26.76    
        26.65       26.55       26.43       26.30       26.16       26.00       25.83       25.64       25.44       25.20    
   5    27.57       27.56       27.55       27.54       27.53       27.51       27.49       27.46       27.43       27.39    
        27.35       27.31       27.26       27.21       27.15       27.08       27.01       26.93       26.85       26.76    
        26.65       26.55       26.43       26.30       26.16       26.00       25.83       25.64       25.44       25.20    
   6    27.57       27.56       27.55       27.54       27.53       27.51       27.49       27.46       27.43       27.39    
        27.35       27.31       27.26       27.21       27.15       27.08       27.01       26.93       26.85       26.76    
        26.65       26.55       26.43       26.30       26.16       26.00       25.83       25.64       25.44       25.20    
   7    27.57       27.56       27.55       27.54       27.53       27.51       27.49       27.46       27.43       27.39    
        27.35       27.31       27.26       27.21       27.15       27.08       27.01       26.93       26.85       26.76    
        26.65       26.55       26.43       26.30       26.16       26.00       25.83       25.64       25.44       25.20    
   8    27.57       27.56       27.55       27.54       27.53       27.51       27.49       27.46       27.43       27.39    
        27.35       27.31       27.26       27.21       27.15       27.08       27.01       26.93       26.85       26.76    
        26.65       26.55       26.43       26.30       26.16       26.00       25.83       25.64       25.44       25.20    
   9    27.57       27.56       27.55       27.54       27.53       27.51       27.49       27.46       27.43       27.39    
        27.35       27.31       27.26       27.21       27.15       27.08       27.01       26.93       26.85       26.76    
        26.65       26.55       26.43       26.30       26.16       26.00       25.83       25.64       25.44       25.20    
  10    27.57       27.56       27.55       27.54       27.53       27.51       27.49       27.46       27.43       27.39    
        27.35       27.31       27.26       27.21       27.15       27.08       27.01       26.93       26.85       26.76    
        26.65       26.55       26.43       26.30       26.16       26.00       25.83       25.64       25.44       25.20    
  11    27.57       27.56       27.55       27.54       27.53       27.51       27.49       27.46       27.43       27.39    
        27.35       27.31       27.26       27.21       27.15       27.08       27.01       26.93       26.85       26.76    
        26.65       26.55       26.43       26.30       26.16       26.00       25.83       25.64       25.44       25.20    
  12    27.57       27.56       27.55       27.54       27.53       27.51       27.49       27.46       27.43       27.39    
        27.35       27.31       27.26       27.21       27.15       27.08       27.01       26.93       26.85       26.76    
        26.65       26.55       26.43       26.30       26.16       26.00       25.83       25.64       25.44       25.20    
  13    27.57       27.56       27.55       27.54       27.53       27.51       27.49       27.46       27.43       27.39    
        27.35       27.31       27.26       27.21       27.15       27.08       27.01       26.93       26.85       26.76    
        26.65       26.55       26.43       26.30       26.16       26.00       25.83       25.64       25.44       25.20    
  14    27.57       27.56       27.55       27.54       27.53       27.51       27.49       27.46       27.43       27.39    
        27.35       27.31       27.26       27.21       27.15       27.08       27.01       26.93       26.85       26.76    
        26.65       26.55       26.43       26.30       26.16       26.00       25.83       25.64       25.44       25.20    
  15    27.57       27.56       27.55       27.54       27.53       27.51       27.49       27.46       27.43       27.39    
        27.35       27.31       27.26       27.21       27.15       27.08       27.01       26.93       26.85       26.76    
        26.65       26.55       26.43       26.30       26.16       26.00       25.83       25.64       25.44       25.20    
  16    27.57       27.56       27.55       27.54       27.53       27.51       27.49       27.46       27.43       27.39    
        27.35       27.31       27.26       27.21       27.15       27.08       27.01       26.93       26.85       26.76    
        26.65       26.55       26.43       26.30       26.16       26.00       25.83       25.64       25.44       25.20    
  17    27.57       27.56       27.55       27.54       27.53       27.51       27.49       27.46       27.43       27.39    
        27.35       27.31       27.26       27.21       27.15       27.08       27.01       26.93       26.85       26.76    
        26.65       26.55       26.43       26.30       26.16       26.00       25.83       25.64       25.44       25.20    
  18    27.57       27.56       27.55       27.54       27.53       27.51       27.49       27.46       27.43       27.39    
        27.35       27.31       27.26       27.21       27.15       27.08       27.01       26.93       26.85       26.76    
        26.65       26.55       26.43       26.30       26.16       26.00       25.83       25.64       25.44       25.20    
  19    27.57       27.56       27.55       27.54       27.53       27.51       27.49       27.46       27.43       27.39    
        27.35       27.31       27.26       27.21       27.15       27.08       27.01       26.93       26.85       26.76    
        26.65       26.55       26.43       26.30       26.16       26.00       25.83       25.64       25.44       25.20    
  20    27.57       27.56       27.55       27.54       27.53       27.51       27.49       27.46       27.43       27.39    
        27.35       27.31       27.26       27.21       27.15       27.08       27.01       26.93       26.85       26.76    
        26.65       26.55       26.43       26.30       26.16       26.00       25.83       25.64       25.44       25.20    
  21    27.57       27.56       27.55       27.54       27.53       27.51       27.49       27.46       27.43       27.39    
        27.35       27.31       27.26       27.21       27.15       27.08       27.01       26.93       26.85       26.76    
        26.65       26.55       26.43       26.30       26.16       26.00       25.83       25.64       25.44       25.20    
  22    27.57       27.56       27.55       27.54       27.53       27.51       27.49       27.46       27.43       27.39    
        27.35       27.31       27.26       27.21       27.15       27.08       27.01       26.93       26.85       26.76    
        26.65       26.55       26.43       26.30       26.16       26.00       25.83       25.64       25.44       25.20    
  23    27.57       27.56       27.55       27.54       27.53       27.51       27.49       27.46       27.43       27.39    
        27.35       27.31       27.26       27.21       27.15       27.08       27.01       26.93       26.85       26.76    
        26.65       26.55       26.43       26.30       26.16       26.00       25.83       25.64       25.44       25.20    
  24    27.57       27.56       27.55       27.54       27.53       27.51       27.49       27.46       27.43       27.39    
        27.35       27.31       27.26       27.21       27.15       27.08       27.01       26.93       26.85       26.76    
        26.65       26.55       26.43       26.30       26.16       26.00       25.83       25.64       25.44       25.20    
  25    27.57       27.56       27.55       27.54       27.53       27.51       27.49       27.46       27.43       27.39    
        27.35       27.31       27.26       27.21       27.15       27.08       27.01       26.93       26.85       26.76    
        26.65       26.55       26.43       26.30       26.16       26.00       25.83       25.64       25.44       25.20    
  26    27.57       27.56       27.55       27.54       27.53       27.51       27.49       27.46       27.43       27.39    
        27.35       27.31       27.26       27.21       27.15       27.08       27.01       26.93       26.85       26.76    
        26.65       26.55       26.43       26.30       26.16       26.00       25.83       25.64       25.44       25.20    
  27    27.57       27.56       27.55       27.54       27.53       27.51       27.49       27.46       27.43       27.39    
        27.35       27.31       27.26       27.21       27.15       27.08       27.01       26.93       26.85       26.76    
        26.65       26.55       26.43       26.30       26.16       26.00       25.83       25.64       25.44       25.20    
  28    27.57       27.56       27.55       27.54       27.53       27.51       27.49       27.46       27.43       27.39    
        27.35       27.31       27.26       27.21       27.15       27.08       27.01       26.93       26.85       26.76    
        26.65       26.55       26.43       26.30       26.16       26.00       25.83       25.64       25.44       25.20    
  29    27.57       27.56       27.55       27.54       27.53       27.51       27.49       27.46       27.43       27.39    
        27.35       27.31       27.26       27.21       27.15       27.08       27.01       26.93       26.85       26.76    
        26.65       26.55       26.43       26.30       26.16       26.00       25.83       25.64       25.44       25.20    
  30    27.57       27.56       27.55       27.54       27.53       27.51       27.49       27.46       27.43       27.39    
        27.35       27.31       27.26       27.21       27.15       27.08       27.01       26.93       26.85       26.76    
        26.65       26.55       26.43       26.30       26.16       26.00       25.83       25.64       25.44       25.20    

 HEAD WILL BE SAVED ON UNIT 1017 AT END OF TIME STEP   10, STRESS PERIOD   56


  VOLUME BUDGET FOR ENTIRE MODEL AT END OF TIME STEP   10, STRESS PERIOD  56
  ---------------------------------------------------------------------------------------------------

     CUMULATIVE VOLUME      L**3       RATES FOR THIS TIME STEP      L**3/T          PACKAGE NAME    
     ------------------                 ------------------------                     ----------------

           IN:                                      IN:
           ---                                      ---
              STO-SS =          93.8927                STO-SS =       7.0452E-02     STORAGE         
              STO-SY =       60764.9050                STO-SY =          45.7213     STORAGE         
                 RCH =      268031.6255                   RCH =          95.3424     RCHA            
                 CHD =        6024.4094                   CHD =           0.0000     CHD             

            TOTAL IN =      334914.8326              TOTAL IN =         141.1342

          OUT:                                     OUT:
          ----                                     ----
              STO-SS =          79.9146                STO-SS =           0.0000     STORAGE         
              STO-SY =       52187.1593                STO-SY =           0.0000     STORAGE         
                 RCH =           0.0000                   RCH =           0.0000     RCHA            
                 CHD =      282646.8911                   CHD =         141.1299     CHD             

           TOTAL OUT =      334913.9649             TOTAL OUT =         141.1299

            IN - OUT =           0.8676              IN - OUT =       4.3194E-03

 PERCENT DISCREPANCY =           0.00     PERCENT DISCREPANCY =           0.00




         TIME SUMMARY AT END OF TIME STEP   10 IN STRESS PERIOD   56
                    SECONDS     MINUTES      HOURS       DAYS        YEARS
                    -----------------------------------------------------------
   TIME STEP LENGTH 2.59200E+05  4320.0      72.000      3.0000     8.21355E-03
 STRESS PERIOD TIME 2.59200E+06  43200.      720.00      30.000     8.21355E-02
         TOTAL TIME 1.42646E+08 2.37744E+06  39624.      1651.0      4.5202    

 OUTPUT CONTROL FOR STRESS PERIOD 57 IS REPEATED USING SETTINGS FROM A PREVIOUS STRESS PERIOD.


 STRESS PERIOD 57 IS TRANSIENT


                 RECHARGE =  0.1643840E-02
 UBDSV1 SAVING           STO-SS ON UNIT   1016 AT TIME STEP      1, STRESS PERIOD     57
 UBDSV1 SAVING           STO-SY ON UNIT   1016 AT TIME STEP      1, STRESS PERIOD     57
 UBDSV1 SAVING     FLOW-JA-FACE ON UNIT   1016 AT TIME STEP      1, STRESS PERIOD     57
 UBDSV06 SAVING              RCH IN MODEL TEST_TRANS       PACKAGE TEST_TRANS      CONNECTED TO MODEL TEST_TRANS       PACKAGE RCHA             ON UNIT   1016 AT TIME STEP      1, STRESS PERIOD     57
 UBDSV06 SAVING              CHD IN MODEL TEST_TRANS       PACKAGE TEST_TRANS      CONNECTED TO MODEL TEST_TRANS       PACKAGE CHD              ON UNIT   1016 AT TIME STEP      1, STRESS PERIOD     57
1
  HEAD IN LAYER   1 AT END OF TIME STEP   1 IN STRESS PERIOD   57
  ---------------------------------------------------------------------------

            1           2           3           4           5           6           7           8           9          10
           11          12          13          14          15          16          17          18          19          20
           21          22          23          24          25          26          27          28          29          30
 ........................................................................................................................
   1    27.57       27.56       27.56       27.55       27.53       27.51       27.49       27.46       27.43       27.40    
        27.36       27.31       27.26       27.21       27.15       27.08       27.01       26.93       26.84       26.75    
        26.65       26.54       26.42       26.29       26.14       25.98       25.79       25.58       25.31       24.94    
   2    27.57       27.56       27.56       27.55       27.53       27.51       27.49       27.46       27.43       27.40    
        27.36       27.31       27.26       27.21       27.15       27.08       27.01       26.93       26.84       26.75    
        26.65       26.54       26.42       26.29       26.14       25.98       25.79       25.58       25.31       24.94    
   3    27.57       27.56       27.56       27.55       27.53       27.51       27.49       27.46       27.43       27.40    
        27.36       27.31       27.26       27.21       27.15       27.08       27.01       26.93       26.84       26.75    
        26.65       26.54       26.42       26.29       26.14       25.98       25.79       25.58       25.31       24.94    
   4    27.57       27.56       27.56       27.55       27.53       27.51       27.49       27.46       27.43       27.40    
        27.36       27.31       27.26       27.21       27.15       27.08       27.01       26.93       26.84       26.75    
        26.65       26.54       26.42       26.29       26.14       25.98       25.79       25.58       25.31       24.94    
   5    27.57       27.56       27.56       27.55       27.53       27.51       27.49       27.46       27.43       27.40    
        27.36       27.31       27.26       27.21       27.15       27.08       27.01       26.93       26.84       26.75    
        26.65       26.54       26.42       26.29       26.14       25.98       25.79       25.58       25.31       24.94    
   6    27.57       27.56       27.56       27.55       27.53       27.51       27.49       27.46       27.43       27.40    
        27.36       27.31       27.26       27.21       27.15       27.08       27.01       26.93       26.84       26.75    
        26.65       26.54       26.42       26.29       26.14       25.98       25.79       25.58       25.31       24.94    
   7    27.57       27.56       27.56       27.55       27.53       27.51       27.49       27.46       27.43       27.40    
        27.36       27.31       27.26       27.21       27.15       27.08       27.01       26.93       26.84       26.75    
        26.65       26.54       26.42       26.29       26.14       25.98       25.79       25.58       25.31       24.94    
   8    27.57       27.56       27.56       27.55       27.53       27.51       27.49       27.46       27.43       27.40    
        27.36       27.31       27.26       27.21       27.15       27.08       27.01       26.93       26.84       26.75    
        26.65       26.54       26.42       26.29       26.14       25.98       25.79       25.58       25.31       24.94    
   9    27.57       27.56       27.56       27.55       27.53       27.51       27.49       27.46       27.43       27.40    
        27.36       27.31       27.26       27.21       27.15       27.08       27.01       26.93       26.84       26.75    
        26.65       26.54       26.42       26.29       26.14       25.98       25.79       25.58       25.31       24.94    
  10    27.57       27.56       27.56       27.55       27.53       27.51       27.49       27.46       27.43       27.40    
        27.36       27.31       27.26       27.21       27.15       27.08       27.01       26.93       26.84       26.75    
        26.65       26.54       26.42       26.29       26.14       25.98       25.79       25.58       25.31       24.94    
  11    27.57       27.56       27.56       27.55       27.53       27.51       27.49       27.46       27.43       27.40    
        27.36       27.31       27.26       27.21       27.15       27.08       27.01       26.93       26.84       26.75    
        26.65       26.54       26.42       26.29       26.14       25.98       25.79       25.58       25.31       24.94    
  12    27.57       27.56       27.56       27.55       27.53       27.51       27.49       27.46       27.43       27.40    
        27.36       27.31       27.26       27.21       27.15       27.08       27.01       26.93       26.84       26.75    
        26.65       26.54       26.42       26.29       26.14       25.98       25.79       25.58       25.31       24.94    
  13    27.57       27.56       27.56       27.55       27.53       27.51       27.49       27.46       27.43       27.40    
        27.36       27.31       27.26       27.21       27.15       27.08       27.01       26.93       26.84       26.75    
        26.65       26.54       26.42       26.29       26.14       25.98       25.79       25.58       25.31       24.94    
  14    27.57       27.56       27.56       27.55       27.53       27.51       27.49       27.46       27.43       27.40    
        27.36       27.31       27.26       27.21       27.15       27.08       27.01       26.93       26.84       26.75    
        26.65       26.54       26.42       26.29       26.14       25.98       25.79       25.58       25.31       24.94    
  15    27.57       27.56       27.56       27.55       27.53       27.51       27.49       27.46       27.43       27.40    
        27.36       27.31       27.26       27.21       27.15       27.08       27.01       26.93       26.84       26.75    
        26.65       26.54       26.42       26.29       26.14       25.98       25.79       25.58       25.31       24.94    
  16    27.57       27.56       27.56       27.55       27.53       27.51       27.49       27.46       27.43       27.40    
        27.36       27.31       27.26       27.21       27.15       27.08       27.01       26.93       26.84       26.75    
        26.65       26.54       26.42       26.29       26.14       25.98       25.79       25.58       25.31       24.94    
  17    27.57       27.56       27.56       27.55       27.53       27.51       27.49       27.46       27.43       27.40    
        27.36       27.31       27.26       27.21       27.15       27.08       27.01       26.93       26.84       26.75    
        26.65       26.54       26.42       26.29       26.14       25.98       25.79       25.58       25.31       24.94    
  18    27.57       27.56       27.56       27.55       27.53       27.51       27.49       27.46       27.43       27.40    
        27.36       27.31       27.26       27.21       27.15       27.08       27.01       26.93       26.84       26.75    
        26.65       26.54       26.42       26.29       26.14       25.98       25.79       25.58       25.31       24.94    
  19    27.57       27.56       27.56       27.55       27.53       27.51       27.49       27.46       27.43       27.40    
        27.36       27.31       27.26       27.21       27.15       27.08       27.01       26.93       26.84       26.75    
        26.65       26.54       26.42       26.29       26.14       25.98       25.79       25.58       25.31       24.94    
  20    27.57       27.56       27.56       27.55       27.53       27.51       27.49       27.46       27.43       27.40    
        27.36       27.31       27.26       27.21       27.15       27.08       27.01       26.93       26.84       26.75    
        26.65       26.54       26.42       26.29       26.14       25.98       25.79       25.58       25.31       24.94    
  21    27.57       27.56       27.56       27.55       27.53       27.51       27.49       27.46       27.43       27.40    
        27.36       27.31       27.26       27.21       27.15       27.08       27.01       26.93       26.84       26.75    
        26.65       26.54       26.42       26.29       26.14       25.98       25.79       25.58       25.31       24.94    
  22    27.57       27.56       27.56       27.55       27.53       27.51       27.49       27.46       27.43       27.40    
        27.36       27.31       27.26       27.21       27.15       27.08       27.01       26.93       26.84       26.75    
        26.65       26.54       26.42       26.29       26.14       25.98       25.79       25.58       25.31       24.94    
  23    27.57       27.56       27.56       27.55       27.53       27.51       27.49       27.46       27.43       27.40    
        27.36       27.31       27.26       27.21       27.15       27.08       27.01       26.93       26.84       26.75    
        26.65       26.54       26.42       26.29       26.14       25.98       25.79       25.58       25.31       24.94    
  24    27.57       27.56       27.56       27.55       27.53       27.51       27.49       27.46       27.43       27.40    
        27.36       27.31       27.26       27.21       27.15       27.08       27.01       26.93       26.84       26.75    
        26.65       26.54       26.42       26.29       26.14       25.98       25.79       25.58       25.31       24.94    
  25    27.57       27.56       27.56       27.55       27.53       27.51       27.49       27.46       27.43       27.40    
        27.36       27.31       27.26       27.21       27.15       27.08       27.01       26.93       26.84       26.75    
        26.65       26.54       26.42       26.29       26.14       25.98       25.79       25.58       25.31       24.94    
  26    27.57       27.56       27.56       27.55       27.53       27.51       27.49       27.46       27.43       27.40    
        27.36       27.31       27.26       27.21       27.15       27.08       27.01       26.93       26.84       26.75    
        26.65       26.54       26.42       26.29       26.14       25.98       25.79       25.58       25.31       24.94    
  27    27.57       27.56       27.56       27.55       27.53       27.51       27.49       27.46       27.43       27.40    
        27.36       27.31       27.26       27.21       27.15       27.08       27.01       26.93       26.84       26.75    
        26.65       26.54       26.42       26.29       26.14       25.98       25.79       25.58       25.31       24.94    
  28    27.57       27.56       27.56       27.55       27.53       27.51       27.49       27.46       27.43       27.40    
        27.36       27.31       27.26       27.21       27.15       27.08       27.01       26.93       26.84       26.75    
        26.65       26.54       26.42       26.29       26.14       25.98       25.79       25.58       25.31       24.94    
  29    27.57       27.56       27.56       27.55       27.53       27.51       27.49       27.46       27.43       27.40    
        27.36       27.31       27.26       27.21       27.15       27.08       27.01       26.93       26.84       26.75    
        26.65       26.54       26.42       26.29       26.14       25.98       25.79       25.58       25.31       24.94    
  30    27.57       27.56       27.56       27.55       27.53       27.51       27.49       27.46       27.43       27.40    
        27.36       27.31       27.26       27.21       27.15       27.08       27.01       26.93       26.84       26.75    
        26.65       26.54       26.42       26.29       26.14       25.98       25.79       25.58       25.31       24.94    

 HEAD WILL BE SAVED ON UNIT 1017 AT END OF TIME STEP    1, STRESS PERIOD   57



         TIME SUMMARY AT END OF TIME STEP    1 IN STRESS PERIOD   57
                    SECONDS     MINUTES      HOURS       DAYS        YEARS
                    -----------------------------------------------------------
   TIME STEP LENGTH 2.59200E+05  4320.0      72.000      3.0000     8.21355E-03
 STRESS PERIOD TIME 2.59200E+05  4320.0      72.000      3.0000     8.21355E-03
         TOTAL TIME 1.42906E+08 2.38176E+06  39696.      1654.0      4.5284    
 UBDSV1 SAVING           STO-SS ON UNIT   1016 AT TIME STEP      2, STRESS PERIOD     57
 UBDSV1 SAVING           STO-SY ON UNIT   1016 AT TIME STEP      2, STRESS PERIOD     57
 UBDSV1 SAVING     FLOW-JA-FACE ON UNIT   1016 AT TIME STEP      2, STRESS PERIOD     57
 UBDSV06 SAVING              RCH IN MODEL TEST_TRANS       PACKAGE TEST_TRANS      CONNECTED TO MODEL TEST_TRANS       PACKAGE RCHA             ON UNIT   1016 AT TIME STEP      2, STRESS PERIOD     57
 UBDSV06 SAVING              CHD IN MODEL TEST_TRANS       PACKAGE TEST_TRANS      CONNECTED TO MODEL TEST_TRANS       PACKAGE CHD              ON UNIT   1016 AT TIME STEP      2, STRESS PERIOD     57

 HEAD WILL BE SAVED ON UNIT 1017 AT END OF TIME STEP    2, STRESS PERIOD   57
 UBDSV1 SAVING           STO-SS ON UNIT   1016 AT TIME STEP      3, STRESS PERIOD     57
 UBDSV1 SAVING           STO-SY ON UNIT   1016 AT TIME STEP      3, STRESS PERIOD     57
 UBDSV1 SAVING     FLOW-JA-FACE ON UNIT   1016 AT TIME STEP      3, STRESS PERIOD     57
 UBDSV06 SAVING              RCH IN MODEL TEST_TRANS       PACKAGE TEST_TRANS      CONNECTED TO MODEL TEST_TRANS       PACKAGE RCHA             ON UNIT   1016 AT TIME STEP      3, STRESS PERIOD     57
 UBDSV06 SAVING              CHD IN MODEL TEST_TRANS       PACKAGE TEST_TRANS      CONNECTED TO MODEL TEST_TRANS       PACKAGE CHD              ON UNIT   1016 AT TIME STEP      3, STRESS PERIOD     57

 HEAD WILL BE SAVED ON UNIT 1017 AT END OF TIME STEP    3, STRESS PERIOD   57
 UBDSV1 SAVING           STO-SS ON UNIT   1016 AT TIME STEP      4, STRESS PERIOD     57
 UBDSV1 SAVING           STO-SY ON UNIT   1016 AT TIME STEP      4, STRESS PERIOD     57
 UBDSV1 SAVING     FLOW-JA-FACE ON UNIT   1016 AT TIME STEP      4, STRESS PERIOD     57
 UBDSV06 SAVING              RCH IN MODEL TEST_TRANS       PACKAGE TEST_TRANS      CONNECTED TO MODEL TEST_TRANS       PACKAGE RCHA             ON UNIT   1016 AT TIME STEP      4, STRESS PERIOD     57
 UBDSV06 SAVING              CHD IN MODEL TEST_TRANS       PACKAGE TEST_TRANS      CONNECTED TO MODEL TEST_TRANS       PACKAGE CHD              ON UNIT   1016 AT TIME STEP      4, STRESS PERIOD     57

 HEAD WILL BE SAVED ON UNIT 1017 AT END OF TIME STEP    4, STRESS PERIOD   57
 UBDSV1 SAVING           STO-SS ON UNIT   1016 AT TIME STEP      5, STRESS PERIOD     57
 UBDSV1 SAVING           STO-SY ON UNIT   1016 AT TIME STEP      5, STRESS PERIOD     57
 UBDSV1 SAVING     FLOW-JA-FACE ON UNIT   1016 AT TIME STEP      5, STRESS PERIOD     57
 UBDSV06 SAVING              RCH IN MODEL TEST_TRANS       PACKAGE TEST_TRANS      CONNECTED TO MODEL TEST_TRANS       PACKAGE RCHA             ON UNIT   1016 AT TIME STEP      5, STRESS PERIOD     57
 UBDSV06 SAVING              CHD IN MODEL TEST_TRANS       PACKAGE TEST_TRANS      CONNECTED TO MODEL TEST_TRANS       PACKAGE CHD              ON UNIT   1016 AT TIME STEP      5, STRESS PERIOD     57

 HEAD WILL BE SAVED ON UNIT 1017 AT END OF TIME STEP    5, STRESS PERIOD   57
 UBDSV1 SAVING           STO-SS ON UNIT   1016 AT TIME STEP      6, STRESS PERIOD     57
 UBDSV1 SAVING           STO-SY ON UNIT   1016 AT TIME STEP      6, STRESS PERIOD     57
 UBDSV1 SAVING     FLOW-JA-FACE ON UNIT   1016 AT TIME STEP      6, STRESS PERIOD     57
 UBDSV06 SAVING              RCH IN MODEL TEST_TRANS       PACKAGE TEST_TRANS      CONNECTED TO MODEL TEST_TRANS       PACKAGE RCHA             ON UNIT   1016 AT TIME STEP      6, STRESS PERIOD     57
 UBDSV06 SAVING              CHD IN MODEL TEST_TRANS       PACKAGE TEST_TRANS      CONNECTED TO MODEL TEST_TRANS       PACKAGE CHD              ON UNIT   1016 AT TIME STEP      6, STRESS PERIOD     57

 HEAD WILL BE SAVED ON UNIT 1017 AT END OF TIME STEP    6, STRESS PERIOD   57
 UBDSV1 SAVING           STO-SS ON UNIT   1016 AT TIME STEP      7, STRESS PERIOD     57
 UBDSV1 SAVING           STO-SY ON UNIT   1016 AT TIME STEP      7, STRESS PERIOD     57
 UBDSV1 SAVING     FLOW-JA-FACE ON UNIT   1016 AT TIME STEP      7, STRESS PERIOD     57
 UBDSV06 SAVING              RCH IN MODEL TEST_TRANS       PACKAGE TEST_TRANS      CONNECTED TO MODEL TEST_TRANS       PACKAGE RCHA             ON UNIT   1016 AT TIME STEP      7, STRESS PERIOD     57
 UBDSV06 SAVING              CHD IN MODEL TEST_TRANS       PACKAGE TEST_TRANS      CONNECTED TO MODEL TEST_TRANS       PACKAGE CHD              ON UNIT   1016 AT TIME STEP      7, STRESS PERIOD     57

 HEAD WILL BE SAVED ON UNIT 1017 AT END OF TIME STEP    7, STRESS PERIOD   57
 UBDSV1 SAVING           STO-SS ON UNIT   1016 AT TIME STEP      8, STRESS PERIOD     57
 UBDSV1 SAVING           STO-SY ON UNIT   1016 AT TIME STEP      8, STRESS PERIOD     57
 UBDSV1 SAVING     FLOW-JA-FACE ON UNIT   1016 AT TIME STEP      8, STRESS PERIOD     57
 UBDSV06 SAVING              RCH IN MODEL TEST_TRANS       PACKAGE TEST_TRANS      CONNECTED TO MODEL TEST_TRANS       PACKAGE RCHA             ON UNIT   1016 AT TIME STEP      8, STRESS PERIOD     57
 UBDSV06 SAVING              CHD IN MODEL TEST_TRANS       PACKAGE TEST_TRANS      CONNECTED TO MODEL TEST_TRANS       PACKAGE CHD              ON UNIT   1016 AT TIME STEP      8, STRESS PERIOD     57

 HEAD WILL BE SAVED ON UNIT 1017 AT END OF TIME STEP    8, STRESS PERIOD   57
 UBDSV1 SAVING           STO-SS ON UNIT   1016 AT TIME STEP      9, STRESS PERIOD     57
 UBDSV1 SAVING           STO-SY ON UNIT   1016 AT TIME STEP      9, STRESS PERIOD     57
 UBDSV1 SAVING     FLOW-JA-FACE ON UNIT   1016 AT TIME STEP      9, STRESS PERIOD     57
 UBDSV06 SAVING              RCH IN MODEL TEST_TRANS       PACKAGE TEST_TRANS      CONNECTED TO MODEL TEST_TRANS       PACKAGE RCHA             ON UNIT   1016 AT TIME STEP      9, STRESS PERIOD     57
 UBDSV06 SAVING              CHD IN MODEL TEST_TRANS       PACKAGE TEST_TRANS      CONNECTED TO MODEL TEST_TRANS       PACKAGE CHD              ON UNIT   1016 AT TIME STEP      9, STRESS PERIOD     57

 HEAD WILL BE SAVED ON UNIT 1017 AT END OF TIME STEP    9, STRESS PERIOD   57
 UBDSV1 SAVING           STO-SS ON UNIT   1016 AT TIME STEP     10, STRESS PERIOD     57
 UBDSV1 SAVING           STO-SY ON UNIT   1016 AT TIME STEP     10, STRESS PERIOD     57
 UBDSV1 SAVING     FLOW-JA-FACE ON UNIT   1016 AT TIME STEP     10, STRESS PERIOD     57
 UBDSV06 SAVING              RCH IN MODEL TEST_TRANS       PACKAGE TEST_TRANS      CONNECTED TO MODEL TEST_TRANS       PACKAGE RCHA             ON UNIT   1016 AT TIME STEP     10, STRESS PERIOD     57
 UBDSV06 SAVING              CHD IN MODEL TEST_TRANS       PACKAGE TEST_TRANS      CONNECTED TO MODEL TEST_TRANS       PACKAGE CHD              ON UNIT   1016 AT TIME STEP     10, STRESS PERIOD     57
1
  HEAD IN LAYER   1 AT END OF TIME STEP  10 IN STRESS PERIOD   57
  ---------------------------------------------------------------------------

            1           2           3           4           5           6           7           8           9          10
           11          12          13          14          15          16          17          18          19          20
           21          22          23          24          25          26          27          28          29          30
 ........................................................................................................................
   1    27.58       27.58       27.57       27.56       27.54       27.52       27.50       27.47       27.43       27.40    
        27.35       27.31       27.25       27.19       27.13       27.06       26.98       26.90       26.81       26.71    
        26.60       26.48       26.35       26.21       26.05       25.88       25.69       25.47       25.23       24.94    
   2    27.58       27.58       27.57       27.56       27.54       27.52       27.50       27.47       27.43       27.40    
        27.35       27.31       27.25       27.19       27.13       27.06       26.98       26.90       26.81       26.71    
        26.60       26.48       26.35       26.21       26.05       25.88       25.69       25.47       25.23       24.94    
   3    27.58       27.58       27.57       27.56       27.54       27.52       27.50       27.47       27.43       27.40    
        27.35       27.31       27.25       27.19       27.13       27.06       26.98       26.90       26.81       26.71    
        26.60       26.48       26.35       26.21       26.05       25.88       25.69       25.47       25.23       24.94    
   4    27.58       27.58       27.57       27.56       27.54       27.52       27.50       27.47       27.43       27.40    
        27.35       27.31       27.25       27.19       27.13       27.06       26.98       26.90       26.81       26.71    
        26.60       26.48       26.35       26.21       26.05       25.88       25.69       25.47       25.23       24.94    
   5    27.58       27.58       27.57       27.56       27.54       27.52       27.50       27.47       27.43       27.40    
        27.35       27.31       27.25       27.19       27.13       27.06       26.98       26.90       26.81       26.71    
        26.60       26.48       26.35       26.21       26.05       25.88       25.69       25.47       25.23       24.94    
   6    27.58       27.58       27.57       27.56       27.54       27.52       27.50       27.47       27.43       27.40    
        27.35       27.31       27.25       27.19       27.13       27.06       26.98       26.90       26.81       26.71    
        26.60       26.48       26.35       26.21       26.05       25.88       25.69       25.47       25.23       24.94    
   7    27.58       27.58       27.57       27.56       27.54       27.52       27.50       27.47       27.43       27.40    
        27.35       27.31       27.25       27.19       27.13       27.06       26.98       26.90       26.81       26.71    
        26.60       26.48       26.35       26.21       26.05       25.88       25.69       25.47       25.23       24.94    
   8    27.58       27.58       27.57       27.56       27.54       27.52       27.50       27.47       27.43       27.40    
        27.35       27.31       27.25       27.19       27.13       27.06       26.98       26.90       26.81       26.71    
        26.60       26.48       26.35       26.21       26.05       25.88       25.69       25.47       25.23       24.94    
   9    27.58       27.58       27.57       27.56       27.54       27.52       27.50       27.47       27.43       27.40    
        27.35       27.31       27.25       27.19       27.13       27.06       26.98       26.90       26.81       26.71    
        26.60       26.48       26.35       26.21       26.05       25.88       25.69       25.47       25.23       24.94    
  10    27.58       27.58       27.57       27.56       27.54       27.52       27.50       27.47       27.43       27.40    
        27.35       27.31       27.25       27.19       27.13       27.06       26.98       26.90       26.81       26.71    
        26.60       26.48       26.35       26.21       26.05       25.88       25.69       25.47       25.23       24.94    
  11    27.58       27.58       27.57       27.56       27.54       27.52       27.50       27.47       27.43       27.40    
        27.35       27.31       27.25       27.19       27.13       27.06       26.98       26.90       26.81       26.71    
        26.60       26.48       26.35       26.21       26.05       25.88       25.69       25.47       25.23       24.94    
  12    27.58       27.58       27.57       27.56       27.54       27.52       27.50       27.47       27.43       27.40    
        27.35       27.31       27.25       27.19       27.13       27.06       26.98       26.90       26.81       26.71    
        26.60       26.48       26.35       26.21       26.05       25.88       25.69       25.47       25.23       24.94    
  13    27.58       27.58       27.57       27.56       27.54       27.52       27.50       27.47       27.43       27.40    
        27.35       27.31       27.25       27.19       27.13       27.06       26.98       26.90       26.81       26.71    
        26.60       26.48       26.35       26.21       26.05       25.88       25.69       25.47       25.23       24.94    
  14    27.58       27.58       27.57       27.56       27.54       27.52       27.50       27.47       27.43       27.40    
        27.35       27.31       27.25       27.19       27.13       27.06       26.98       26.90       26.81       26.71    
        26.60       26.48       26.35       26.21       26.05       25.88       25.69       25.47       25.23       24.94    
  15    27.58       27.58       27.57       27.56       27.54       27.52       27.50       27.47       27.43       27.40    
        27.35       27.31       27.25       27.19       27.13       27.06       26.98       26.90       26.81       26.71    
        26.60       26.48       26.35       26.21       26.05       25.88       25.69       25.47       25.23       24.94    
  16    27.58       27.58       27.57       27.56       27.54       27.52       27.50       27.47       27.43       27.40    
        27.35       27.31       27.25       27.19       27.13       27.06       26.98       26.90       26.81       26.71    
        26.60       26.48       26.35       26.21       26.05       25.88       25.69       25.47       25.23       24.94    
  17    27.58       27.58       27.57       27.56       27.54       27.52       27.50       27.47       27.43       27.40    
        27.35       27.31       27.25       27.19       27.13       27.06       26.98       26.90       26.81       26.71    
        26.60       26.48       26.35       26.21       26.05       25.88       25.69       25.47       25.23       24.94    
  18    27.58       27.58       27.57       27.56       27.54       27.52       27.50       27.47       27.43       27.40    
        27.35       27.31       27.25       27.19       27.13       27.06       26.98       26.90       26.81       26.71    
        26.60       26.48       26.35       26.21       26.05       25.88       25.69       25.47       25.23       24.94    
  19    27.58       27.58       27.57       27.56       27.54       27.52       27.50       27.47       27.43       27.40    
        27.35       27.31       27.25       27.19       27.13       27.06       26.98       26.90       26.81       26.71    
        26.60       26.48       26.35       26.21       26.05       25.88       25.69       25.47       25.23       24.94    
  20    27.58       27.58       27.57       27.56       27.54       27.52       27.50       27.47       27.43       27.40    
        27.35       27.31       27.25       27.19       27.13       27.06       26.98       26.90       26.81       26.71    
        26.60       26.48       26.35       26.21       26.05       25.88       25.69       25.47       25.23       24.94    
  21    27.58       27.58       27.57       27.56       27.54       27.52       27.50       27.47       27.43       27.40    
        27.35       27.31       27.25       27.19       27.13       27.06       26.98       26.90       26.81       26.71    
        26.60       26.48       26.35       26.21       26.05       25.88       25.69       25.47       25.23       24.94    
  22    27.58       27.58       27.57       27.56       27.54       27.52       27.50       27.47       27.43       27.40    
        27.35       27.31       27.25       27.19       27.13       27.06       26.98       26.90       26.81       26.71    
        26.60       26.48       26.35       26.21       26.05       25.88       25.69       25.47       25.23       24.94    
  23    27.58       27.58       27.57       27.56       27.54       27.52       27.50       27.47       27.43       27.40    
        27.35       27.31       27.25       27.19       27.13       27.06       26.98       26.90       26.81       26.71    
        26.60       26.48       26.35       26.21       26.05       25.88       25.69       25.47       25.23       24.94    
  24    27.58       27.58       27.57       27.56       27.54       27.52       27.50       27.47       27.43       27.40    
        27.35       27.31       27.25       27.19       27.13       27.06       26.98       26.90       26.81       26.71    
        26.60       26.48       26.35       26.21       26.05       25.88       25.69       25.47       25.23       24.94    
  25    27.58       27.58       27.57       27.56       27.54       27.52       27.50       27.47       27.43       27.40    
        27.35       27.31       27.25       27.19       27.13       27.06       26.98       26.90       26.81       26.71    
        26.60       26.48       26.35       26.21       26.05       25.88       25.69       25.47       25.23       24.94    
  26    27.58       27.58       27.57       27.56       27.54       27.52       27.50       27.47       27.43       27.40    
        27.35       27.31       27.25       27.19       27.13       27.06       26.98       26.90       26.81       26.71    
        26.60       26.48       26.35       26.21       26.05       25.88       25.69       25.47       25.23       24.94    
  27    27.58       27.58       27.57       27.56       27.54       27.52       27.50       27.47       27.43       27.40    
        27.35       27.31       27.25       27.19       27.13       27.06       26.98       26.90       26.81       26.71    
        26.60       26.48       26.35       26.21       26.05       25.88       25.69       25.47       25.23       24.94    
  28    27.58       27.58       27.57       27.56       27.54       27.52       27.50       27.47       27.43       27.40    
        27.35       27.31       27.25       27.19       27.13       27.06       26.98       26.90       26.81       26.71    
        26.60       26.48       26.35       26.21       26.05       25.88       25.69       25.47       25.23       24.94    
  29    27.58       27.58       27.57       27.56       27.54       27.52       27.50       27.47       27.43       27.40    
        27.35       27.31       27.25       27.19       27.13       27.06       26.98       26.90       26.81       26.71    
        26.60       26.48       26.35       26.21       26.05       25.88       25.69       25.47       25.23       24.94    
  30    27.58       27.58       27.57       27.56       27.54       27.52       27.50       27.47       27.43       27.40    
        27.35       27.31       27.25       27.19       27.13       27.06       26.98       26.90       26.81       26.71    
        26.60       26.48       26.35       26.21       26.05       25.88       25.69       25.47       25.23       24.94    

 HEAD WILL BE SAVED ON UNIT 1017 AT END OF TIME STEP   10, STRESS PERIOD   57


  VOLUME BUDGET FOR ENTIRE MODEL AT END OF TIME STEP   10, STRESS PERIOD  57
  ---------------------------------------------------------------------------------------------------

     CUMULATIVE VOLUME      L**3       RATES FOR THIS TIME STEP      L**3/T          PACKAGE NAME    
     ------------------                 ------------------------                     ----------------

           IN:                                      IN:
           ---                                      ---
              STO-SS =          94.9865                STO-SS =       1.8089E-02     STORAGE         
              STO-SY =       61515.4544                STO-SY =          12.0835     STORAGE         
                 RCH =      272322.0479                   RCH =         143.0141     RCHA            
                 CHD =        6024.4094                   CHD =           0.0000     CHD             

            TOTAL IN =      339956.8981              TOTAL IN =         155.1156

          OUT:                                     OUT:
          ----                                     ----
              STO-SS =          80.0283                STO-SS =       1.3213E-03     STORAGE         
              STO-SY =       52258.1132                STO-SY =           0.8227     STORAGE         
                 RCH =           0.0000                   RCH =           0.0000     RCHA            
                 CHD =      287617.8345                   CHD =         154.2891     CHD             

           TOTAL OUT =      339955.9759             TOTAL OUT =         155.1131

            IN - OUT =           0.9222              IN - OUT =       2.5298E-03

 PERCENT DISCREPANCY =           0.00     PERCENT DISCREPANCY =           0.00




         TIME SUMMARY AT END OF TIME STEP   10 IN STRESS PERIOD   57
                    SECONDS     MINUTES      HOURS       DAYS        YEARS
                    -----------------------------------------------------------
   TIME STEP LENGTH 2.59200E+05  4320.0      72.000      3.0000     8.21355E-03
 STRESS PERIOD TIME 2.59200E+06  43200.      720.00      30.000     8.21355E-02
         TOTAL TIME 1.45238E+08 2.42064E+06  40344.      1681.0      4.6023    

 OUTPUT CONTROL FOR STRESS PERIOD 58 IS REPEATED USING SETTINGS FROM A PREVIOUS STRESS PERIOD.


 STRESS PERIOD 58 IS TRANSIENT


                 RECHARGE =  0.2191780E-02
 UBDSV1 SAVING           STO-SS ON UNIT   1016 AT TIME STEP      1, STRESS PERIOD     58
 UBDSV1 SAVING           STO-SY ON UNIT   1016 AT TIME STEP      1, STRESS PERIOD     58
 UBDSV1 SAVING     FLOW-JA-FACE ON UNIT   1016 AT TIME STEP      1, STRESS PERIOD     58
 UBDSV06 SAVING              RCH IN MODEL TEST_TRANS       PACKAGE TEST_TRANS      CONNECTED TO MODEL TEST_TRANS       PACKAGE RCHA             ON UNIT   1016 AT TIME STEP      1, STRESS PERIOD     58
 UBDSV06 SAVING              CHD IN MODEL TEST_TRANS       PACKAGE TEST_TRANS      CONNECTED TO MODEL TEST_TRANS       PACKAGE CHD              ON UNIT   1016 AT TIME STEP      1, STRESS PERIOD     58
1
  HEAD IN LAYER   1 AT END OF TIME STEP   1 IN STRESS PERIOD   58
  ---------------------------------------------------------------------------

            1           2           3           4           5           6           7           8           9          10
           11          12          13          14          15          16          17          18          19          20
           21          22          23          24          25          26          27          28          29          30
 ........................................................................................................................
   1    27.59       27.59       27.58       27.57       27.55       27.53       27.51       27.48       27.44       27.40    
        27.36       27.31       27.26       27.20       27.14       27.06       26.99       26.90       26.81       26.71    
        26.60       26.48       26.35       26.20       26.03       25.85       25.62       25.35       24.98       24.34    
   2    27.59       27.59       27.58       27.57       27.55       27.53       27.51       27.48       27.44       27.40    
        27.36       27.31       27.26       27.20       27.14       27.06       26.99       26.90       26.81       26.71    
        26.60       26.48       26.35       26.20       26.03       25.85       25.62       25.35       24.98       24.34    
   3    27.59       27.59       27.58       27.57       27.55       27.53       27.51       27.48       27.44       27.40    
        27.36       27.31       27.26       27.20       27.14       27.06       26.99       26.90       26.81       26.71    
        26.60       26.48       26.35       26.20       26.03       25.85       25.62       25.35       24.98       24.34    
   4    27.59       27.59       27.58       27.57       27.55       27.53       27.51       27.48       27.44       27.40    
        27.36       27.31       27.26       27.20       27.14       27.06       26.99       26.90       26.81       26.71    
        26.60       26.48       26.35       26.20       26.03       25.85       25.62       25.35       24.98       24.34    
   5    27.59       27.59       27.58       27.57       27.55       27.53       27.51       27.48       27.44       27.40    
        27.36       27.31       27.26       27.20       27.14       27.06       26.99       26.90       26.81       26.71    
        26.60       26.48       26.35       26.20       26.03       25.85       25.62       25.35       24.98       24.34    
   6    27.59       27.59       27.58       27.57       27.55       27.53       27.51       27.48       27.44       27.40    
        27.36       27.31       27.26       27.20       27.14       27.06       26.99       26.90       26.81       26.71    
        26.60       26.48       26.35       26.20       26.03       25.85       25.62       25.35       24.98       24.34    
   7    27.59       27.59       27.58       27.57       27.55       27.53       27.51       27.48       27.44       27.40    
        27.36       27.31       27.26       27.20       27.14       27.06       26.99       26.90       26.81       26.71    
        26.60       26.48       26.35       26.20       26.03       25.85       25.62       25.35       24.98       24.34    
   8    27.59       27.59       27.58       27.57       27.55       27.53       27.51       27.48       27.44       27.40    
        27.36       27.31       27.26       27.20       27.14       27.06       26.99       26.90       26.81       26.71    
        26.60       26.48       26.35       26.20       26.03       25.85       25.62       25.35       24.98       24.34    
   9    27.59       27.59       27.58       27.57       27.55       27.53       27.51       27.48       27.44       27.40    
        27.36       27.31       27.26       27.20       27.14       27.06       26.99       26.90       26.81       26.71    
        26.60       26.48       26.35       26.20       26.03       25.85       25.62       25.35       24.98       24.34    
  10    27.59       27.59       27.58       27.57       27.55       27.53       27.51       27.48       27.44       27.40    
        27.36       27.31       27.26       27.20       27.14       27.06       26.99       26.90       26.81       26.71    
        26.60       26.48       26.35       26.20       26.03       25.85       25.62       25.35       24.98       24.34    
  11    27.59       27.59       27.58       27.57       27.55       27.53       27.51       27.48       27.44       27.40    
        27.36       27.31       27.26       27.20       27.14       27.06       26.99       26.90       26.81       26.71    
        26.60       26.48       26.35       26.20       26.03       25.85       25.62       25.35       24.98       24.34    
  12    27.59       27.59       27.58       27.57       27.55       27.53       27.51       27.48       27.44       27.40    
        27.36       27.31       27.26       27.20       27.14       27.06       26.99       26.90       26.81       26.71    
        26.60       26.48       26.35       26.20       26.03       25.85       25.62       25.35       24.98       24.34    
  13    27.59       27.59       27.58       27.57       27.55       27.53       27.51       27.48       27.44       27.40    
        27.36       27.31       27.26       27.20       27.14       27.06       26.99       26.90       26.81       26.71    
        26.60       26.48       26.35       26.20       26.03       25.85       25.62       25.35       24.98       24.34    
  14    27.59       27.59       27.58       27.57       27.55       27.53       27.51       27.48       27.44       27.40    
        27.36       27.31       27.26       27.20       27.14       27.06       26.99       26.90       26.81       26.71    
        26.60       26.48       26.35       26.20       26.03       25.85       25.62       25.35       24.98       24.34    
  15    27.59       27.59       27.58       27.57       27.55       27.53       27.51       27.48       27.44       27.40    
        27.36       27.31       27.26       27.20       27.14       27.06       26.99       26.90       26.81       26.71    
        26.60       26.48       26.35       26.20       26.03       25.85       25.62       25.35       24.98       24.34    
  16    27.59       27.59       27.58       27.57       27.55       27.53       27.51       27.48       27.44       27.40    
        27.36       27.31       27.26       27.20       27.14       27.06       26.99       26.90       26.81       26.71    
        26.60       26.48       26.35       26.20       26.03       25.85       25.62       25.35       24.98       24.34    
  17    27.59       27.59       27.58       27.57       27.55       27.53       27.51       27.48       27.44       27.40    
        27.36       27.31       27.26       27.20       27.14       27.06       26.99       26.90       26.81       26.71    
        26.60       26.48       26.35       26.20       26.03       25.85       25.62       25.35       24.98       24.34    
  18    27.59       27.59       27.58       27.57       27.55       27.53       27.51       27.48       27.44       27.40    
        27.36       27.31       27.26       27.20       27.14       27.06       26.99       26.90       26.81       26.71    
        26.60       26.48       26.35       26.20       26.03       25.85       25.62       25.35       24.98       24.34    
  19    27.59       27.59       27.58       27.57       27.55       27.53       27.51       27.48       27.44       27.40    
        27.36       27.31       27.26       27.20       27.14       27.06       26.99       26.90       26.81       26.71    
        26.60       26.48       26.35       26.20       26.03       25.85       25.62       25.35       24.98       24.34    
  20    27.59       27.59       27.58       27.57       27.55       27.53       27.51       27.48       27.44       27.40    
        27.36       27.31       27.26       27.20       27.14       27.06       26.99       26.90       26.81       26.71    
        26.60       26.48       26.35       26.20       26.03       25.85       25.62       25.35       24.98       24.34    
  21    27.59       27.59       27.58       27.57       27.55       27.53       27.51       27.48       27.44       27.40    
        27.36       27.31       27.26       27.20       27.14       27.06       26.99       26.90       26.81       26.71    
        26.60       26.48       26.35       26.20       26.03       25.85       25.62       25.35       24.98       24.34    
  22    27.59       27.59       27.58       27.57       27.55       27.53       27.51       27.48       27.44       27.40    
        27.36       27.31       27.26       27.20       27.14       27.06       26.99       26.90       26.81       26.71    
        26.60       26.48       26.35       26.20       26.03       25.85       25.62       25.35       24.98       24.34    
  23    27.59       27.59       27.58       27.57       27.55       27.53       27.51       27.48       27.44       27.40    
        27.36       27.31       27.26       27.20       27.14       27.06       26.99       26.90       26.81       26.71    
        26.60       26.48       26.35       26.20       26.03       25.85       25.62       25.35       24.98       24.34    
  24    27.59       27.59       27.58       27.57       27.55       27.53       27.51       27.48       27.44       27.40    
        27.36       27.31       27.26       27.20       27.14       27.06       26.99       26.90       26.81       26.71    
        26.60       26.48       26.35       26.20       26.03       25.85       25.62       25.35       24.98       24.34    
  25    27.59       27.59       27.58       27.57       27.55       27.53       27.51       27.48       27.44       27.40    
        27.36       27.31       27.26       27.20       27.14       27.06       26.99       26.90       26.81       26.71    
        26.60       26.48       26.35       26.20       26.03       25.85       25.62       25.35       24.98       24.34    
  26    27.59       27.59       27.58       27.57       27.55       27.53       27.51       27.48       27.44       27.40    
        27.36       27.31       27.26       27.20       27.14       27.06       26.99       26.90       26.81       26.71    
        26.60       26.48       26.35       26.20       26.03       25.85       25.62       25.35       24.98       24.34    
  27    27.59       27.59       27.58       27.57       27.55       27.53       27.51       27.48       27.44       27.40    
        27.36       27.31       27.26       27.20       27.14       27.06       26.99       26.90       26.81       26.71    
        26.60       26.48       26.35       26.20       26.03       25.85       25.62       25.35       24.98       24.34    
  28    27.59       27.59       27.58       27.57       27.55       27.53       27.51       27.48       27.44       27.40    
        27.36       27.31       27.26       27.20       27.14       27.06       26.99       26.90       26.81       26.71    
        26.60       26.48       26.35       26.20       26.03       25.85       25.62       25.35       24.98       24.34    
  29    27.59       27.59       27.58       27.57       27.55       27.53       27.51       27.48       27.44       27.40    
        27.36       27.31       27.26       27.20       27.14       27.06       26.99       26.90       26.81       26.71    
        26.60       26.48       26.35       26.20       26.03       25.85       25.62       25.35       24.98       24.34    
  30    27.59       27.59       27.58       27.57       27.55       27.53       27.51       27.48       27.44       27.40    
        27.36       27.31       27.26       27.20       27.14       27.06       26.99       26.90       26.81       26.71    
        26.60       26.48       26.35       26.20       26.03       25.85       25.62       25.35       24.98       24.34    

 HEAD WILL BE SAVED ON UNIT 1017 AT END OF TIME STEP    1, STRESS PERIOD   58



         TIME SUMMARY AT END OF TIME STEP    1 IN STRESS PERIOD   58
                    SECONDS     MINUTES      HOURS       DAYS        YEARS
                    -----------------------------------------------------------
   TIME STEP LENGTH 2.59200E+05  4320.0      72.000      3.0000     8.21355E-03
 STRESS PERIOD TIME 2.59200E+05  4320.0      72.000      3.0000     8.21355E-03
         TOTAL TIME 1.45498E+08 2.42496E+06  40416.      1684.0      4.6105    
 UBDSV1 SAVING           STO-SS ON UNIT   1016 AT TIME STEP      2, STRESS PERIOD     58
 UBDSV1 SAVING           STO-SY ON UNIT   1016 AT TIME STEP      2, STRESS PERIOD     58
 UBDSV1 SAVING     FLOW-JA-FACE ON UNIT   1016 AT TIME STEP      2, STRESS PERIOD     58
 UBDSV06 SAVING              RCH IN MODEL TEST_TRANS       PACKAGE TEST_TRANS      CONNECTED TO MODEL TEST_TRANS       PACKAGE RCHA             ON UNIT   1016 AT TIME STEP      2, STRESS PERIOD     58
 UBDSV06 SAVING              CHD IN MODEL TEST_TRANS       PACKAGE TEST_TRANS      CONNECTED TO MODEL TEST_TRANS       PACKAGE CHD              ON UNIT   1016 AT TIME STEP      2, STRESS PERIOD     58

 HEAD WILL BE SAVED ON UNIT 1017 AT END OF TIME STEP    2, STRESS PERIOD   58
 UBDSV1 SAVING           STO-SS ON UNIT   1016 AT TIME STEP      3, STRESS PERIOD     58
 UBDSV1 SAVING           STO-SY ON UNIT   1016 AT TIME STEP      3, STRESS PERIOD     58
 UBDSV1 SAVING     FLOW-JA-FACE ON UNIT   1016 AT TIME STEP      3, STRESS PERIOD     58
 UBDSV06 SAVING              RCH IN MODEL TEST_TRANS       PACKAGE TEST_TRANS      CONNECTED TO MODEL TEST_TRANS       PACKAGE RCHA             ON UNIT   1016 AT TIME STEP      3, STRESS PERIOD     58
 UBDSV06 SAVING              CHD IN MODEL TEST_TRANS       PACKAGE TEST_TRANS      CONNECTED TO MODEL TEST_TRANS       PACKAGE CHD              ON UNIT   1016 AT TIME STEP      3, STRESS PERIOD     58

 HEAD WILL BE SAVED ON UNIT 1017 AT END OF TIME STEP    3, STRESS PERIOD   58
 UBDSV1 SAVING           STO-SS ON UNIT   1016 AT TIME STEP      4, STRESS PERIOD     58
 UBDSV1 SAVING           STO-SY ON UNIT   1016 AT TIME STEP      4, STRESS PERIOD     58
 UBDSV1 SAVING     FLOW-JA-FACE ON UNIT   1016 AT TIME STEP      4, STRESS PERIOD     58
 UBDSV06 SAVING              RCH IN MODEL TEST_TRANS       PACKAGE TEST_TRANS      CONNECTED TO MODEL TEST_TRANS       PACKAGE RCHA             ON UNIT   1016 AT TIME STEP      4, STRESS PERIOD     58
 UBDSV06 SAVING              CHD IN MODEL TEST_TRANS       PACKAGE TEST_TRANS      CONNECTED TO MODEL TEST_TRANS       PACKAGE CHD              ON UNIT   1016 AT TIME STEP      4, STRESS PERIOD     58

 HEAD WILL BE SAVED ON UNIT 1017 AT END OF TIME STEP    4, STRESS PERIOD   58
 UBDSV1 SAVING           STO-SS ON UNIT   1016 AT TIME STEP      5, STRESS PERIOD     58
 UBDSV1 SAVING           STO-SY ON UNIT   1016 AT TIME STEP      5, STRESS PERIOD     58
 UBDSV1 SAVING     FLOW-JA-FACE ON UNIT   1016 AT TIME STEP      5, STRESS PERIOD     58
 UBDSV06 SAVING              RCH IN MODEL TEST_TRANS       PACKAGE TEST_TRANS      CONNECTED TO MODEL TEST_TRANS       PACKAGE RCHA             ON UNIT   1016 AT TIME STEP      5, STRESS PERIOD     58
 UBDSV06 SAVING              CHD IN MODEL TEST_TRANS       PACKAGE TEST_TRANS      CONNECTED TO MODEL TEST_TRANS       PACKAGE CHD              ON UNIT   1016 AT TIME STEP      5, STRESS PERIOD     58

 HEAD WILL BE SAVED ON UNIT 1017 AT END OF TIME STEP    5, STRESS PERIOD   58
 UBDSV1 SAVING           STO-SS ON UNIT   1016 AT TIME STEP      6, STRESS PERIOD     58
 UBDSV1 SAVING           STO-SY ON UNIT   1016 AT TIME STEP      6, STRESS PERIOD     58
 UBDSV1 SAVING     FLOW-JA-FACE ON UNIT   1016 AT TIME STEP      6, STRESS PERIOD     58
 UBDSV06 SAVING              RCH IN MODEL TEST_TRANS       PACKAGE TEST_TRANS      CONNECTED TO MODEL TEST_TRANS       PACKAGE RCHA             ON UNIT   1016 AT TIME STEP      6, STRESS PERIOD     58
 UBDSV06 SAVING              CHD IN MODEL TEST_TRANS       PACKAGE TEST_TRANS      CONNECTED TO MODEL TEST_TRANS       PACKAGE CHD              ON UNIT   1016 AT TIME STEP      6, STRESS PERIOD     58

 HEAD WILL BE SAVED ON UNIT 1017 AT END OF TIME STEP    6, STRESS PERIOD   58
 UBDSV1 SAVING           STO-SS ON UNIT   1016 AT TIME STEP      7, STRESS PERIOD     58
 UBDSV1 SAVING           STO-SY ON UNIT   1016 AT TIME STEP      7, STRESS PERIOD     58
 UBDSV1 SAVING     FLOW-JA-FACE ON UNIT   1016 AT TIME STEP      7, STRESS PERIOD     58
 UBDSV06 SAVING              RCH IN MODEL TEST_TRANS       PACKAGE TEST_TRANS      CONNECTED TO MODEL TEST_TRANS       PACKAGE RCHA             ON UNIT   1016 AT TIME STEP      7, STRESS PERIOD     58
 UBDSV06 SAVING              CHD IN MODEL TEST_TRANS       PACKAGE TEST_TRANS      CONNECTED TO MODEL TEST_TRANS       PACKAGE CHD              ON UNIT   1016 AT TIME STEP      7, STRESS PERIOD     58

 HEAD WILL BE SAVED ON UNIT 1017 AT END OF TIME STEP    7, STRESS PERIOD   58
 UBDSV1 SAVING           STO-SS ON UNIT   1016 AT TIME STEP      8, STRESS PERIOD     58
 UBDSV1 SAVING           STO-SY ON UNIT   1016 AT TIME STEP      8, STRESS PERIOD     58
 UBDSV1 SAVING     FLOW-JA-FACE ON UNIT   1016 AT TIME STEP      8, STRESS PERIOD     58
 UBDSV06 SAVING              RCH IN MODEL TEST_TRANS       PACKAGE TEST_TRANS      CONNECTED TO MODEL TEST_TRANS       PACKAGE RCHA             ON UNIT   1016 AT TIME STEP      8, STRESS PERIOD     58
 UBDSV06 SAVING              CHD IN MODEL TEST_TRANS       PACKAGE TEST_TRANS      CONNECTED TO MODEL TEST_TRANS       PACKAGE CHD              ON UNIT   1016 AT TIME STEP      8, STRESS PERIOD     58

 HEAD WILL BE SAVED ON UNIT 1017 AT END OF TIME STEP    8, STRESS PERIOD   58
 UBDSV1 SAVING           STO-SS ON UNIT   1016 AT TIME STEP      9, STRESS PERIOD     58
 UBDSV1 SAVING           STO-SY ON UNIT   1016 AT TIME STEP      9, STRESS PERIOD     58
 UBDSV1 SAVING     FLOW-JA-FACE ON UNIT   1016 AT TIME STEP      9, STRESS PERIOD     58
 UBDSV06 SAVING              RCH IN MODEL TEST_TRANS       PACKAGE TEST_TRANS      CONNECTED TO MODEL TEST_TRANS       PACKAGE RCHA             ON UNIT   1016 AT TIME STEP      9, STRESS PERIOD     58
 UBDSV06 SAVING              CHD IN MODEL TEST_TRANS       PACKAGE TEST_TRANS      CONNECTED TO MODEL TEST_TRANS       PACKAGE CHD              ON UNIT   1016 AT TIME STEP      9, STRESS PERIOD     58

 HEAD WILL BE SAVED ON UNIT 1017 AT END OF TIME STEP    9, STRESS PERIOD   58
 UBDSV1 SAVING           STO-SS ON UNIT   1016 AT TIME STEP     10, STRESS PERIOD     58
 UBDSV1 SAVING           STO-SY ON UNIT   1016 AT TIME STEP     10, STRESS PERIOD     58
 UBDSV1 SAVING     FLOW-JA-FACE ON UNIT   1016 AT TIME STEP     10, STRESS PERIOD     58
 UBDSV06 SAVING              RCH IN MODEL TEST_TRANS       PACKAGE TEST_TRANS      CONNECTED TO MODEL TEST_TRANS       PACKAGE RCHA             ON UNIT   1016 AT TIME STEP     10, STRESS PERIOD     58
 UBDSV06 SAVING              CHD IN MODEL TEST_TRANS       PACKAGE TEST_TRANS      CONNECTED TO MODEL TEST_TRANS       PACKAGE CHD              ON UNIT   1016 AT TIME STEP     10, STRESS PERIOD     58
1
  HEAD IN LAYER   1 AT END OF TIME STEP  10 IN STRESS PERIOD   58
  ---------------------------------------------------------------------------

            1           2           3           4           5           6           7           8           9          10
           11          12          13          14          15          16          17          18          19          20
           21          22          23          24          25          26          27          28          29          30
 ........................................................................................................................
   1    27.66       27.66       27.65       27.63       27.62       27.59       27.57       27.54       27.50       27.46    
        27.41       27.36       27.30       27.23       27.16       27.08       27.00       26.90       26.80       26.68    
        26.56       26.42       26.26       26.09       25.90       25.69       25.44       25.15       24.80       24.34    
   2    27.66       27.66       27.65       27.63       27.62       27.59       27.57       27.54       27.50       27.46    
        27.41       27.36       27.30       27.23       27.16       27.08       27.00       26.90       26.80       26.68    
        26.56       26.42       26.26       26.09       25.90       25.69       25.44       25.15       24.80       24.34    
   3    27.66       27.66       27.65       27.63       27.62       27.59       27.57       27.54       27.50       27.46    
        27.41       27.36       27.30       27.23       27.16       27.08       27.00       26.90       26.80       26.68    
        26.56       26.42       26.26       26.09       25.90       25.69       25.44       25.15       24.80       24.34    
   4    27.66       27.66       27.65       27.63       27.62       27.59       27.57       27.54       27.50       27.46    
        27.41       27.36       27.30       27.23       27.16       27.08       27.00       26.90       26.80       26.68    
        26.56       26.42       26.26       26.09       25.90       25.69       25.44       25.15       24.80       24.34    
   5    27.66       27.66       27.65       27.63       27.62       27.59       27.57       27.54       27.50       27.46    
        27.41       27.36       27.30       27.23       27.16       27.08       27.00       26.90       26.80       26.68    
        26.56       26.42       26.26       26.09       25.90       25.69       25.44       25.15       24.80       24.34    
   6    27.66       27.66       27.65       27.63       27.62       27.59       27.57       27.54       27.50       27.46    
        27.41       27.36       27.30       27.23       27.16       27.08       27.00       26.90       26.80       26.68    
        26.56       26.42       26.26       26.09       25.90       25.69       25.44       25.15       24.80       24.34    
   7    27.66       27.66       27.65       27.63       27.62       27.59       27.57       27.54       27.50       27.46    
        27.41       27.36       27.30       27.23       27.16       27.08       27.00       26.90       26.80       26.68    
        26.56       26.42       26.26       26.09       25.90       25.69       25.44       25.15       24.80       24.34    
   8    27.66       27.66       27.65       27.63       27.62       27.59       27.57       27.54       27.50       27.46    
        27.41       27.36       27.30       27.23       27.16       27.08       27.00       26.90       26.80       26.68    
        26.56       26.42       26.26       26.09       25.90       25.69       25.44       25.15       24.80       24.34    
   9    27.66       27.66       27.65       27.63       27.62       27.59       27.57       27.54       27.50       27.46    
        27.41       27.36       27.30       27.23       27.16       27.08       27.00       26.90       26.80       26.68    
        26.56       26.42       26.26       26.09       25.90       25.69       25.44       25.15       24.80       24.34    
  10    27.66       27.66       27.65       27.63       27.62       27.59       27.57       27.54       27.50       27.46    
        27.41       27.36       27.30       27.23       27.16       27.08       27.00       26.90       26.80       26.68    
        26.56       26.42       26.26       26.09       25.90       25.69       25.44       25.15       24.80       24.34    
  11    27.66       27.66       27.65       27.63       27.62       27.59       27.57       27.54       27.50       27.46    
        27.41       27.36       27.30       27.23       27.16       27.08       27.00       26.90       26.80       26.68    
        26.56       26.42       26.26       26.09       25.90       25.69       25.44       25.15       24.80       24.34    
  12    27.66       27.66       27.65       27.63       27.62       27.59       27.57       27.54       27.50       27.46    
        27.41       27.36       27.30       27.23       27.16       27.08       27.00       26.90       26.80       26.68    
        26.56       26.42       26.26       26.09       25.90       25.69       25.44       25.15       24.80       24.34    
  13    27.66       27.66       27.65       27.63       27.62       27.59       27.57       27.54       27.50       27.46    
        27.41       27.36       27.30       27.23       27.16       27.08       27.00       26.90       26.80       26.68    
        26.56       26.42       26.26       26.09       25.90       25.69       25.44       25.15       24.80       24.34    
  14    27.66       27.66       27.65       27.63       27.62       27.59       27.57       27.54       27.50       27.46    
        27.41       27.36       27.30       27.23       27.16       27.08       27.00       26.90       26.80       26.68    
        26.56       26.42       26.26       26.09       25.90       25.69       25.44       25.15       24.80       24.34    
  15    27.66       27.66       27.65       27.63       27.62       27.59       27.57       27.54       27.50       27.46    
        27.41       27.36       27.30       27.23       27.16       27.08       27.00       26.90       26.80       26.68    
        26.56       26.42       26.26       26.09       25.90       25.69       25.44       25.15       24.80       24.34    
  16    27.66       27.66       27.65       27.63       27.62       27.59       27.57       27.54       27.50       27.46    
        27.41       27.36       27.30       27.23       27.16       27.08       27.00       26.90       26.80       26.68    
        26.56       26.42       26.26       26.09       25.90       25.69       25.44       25.15       24.80       24.34    
  17    27.66       27.66       27.65       27.63       27.62       27.59       27.57       27.54       27.50       27.46    
        27.41       27.36       27.30       27.23       27.16       27.08       27.00       26.90       26.80       26.68    
        26.56       26.42       26.26       26.09       25.90       25.69       25.44       25.15       24.80       24.34    
  18    27.66       27.66       27.65       27.63       27.62       27.59       27.57       27.54       27.50       27.46    
        27.41       27.36       27.30       27.23       27.16       27.08       27.00       26.90       26.80       26.68    
        26.56       26.42       26.26       26.09       25.90       25.69       25.44       25.15       24.80       24.34    
  19    27.66       27.66       27.65       27.63       27.62       27.59       27.57       27.54       27.50       27.46    
        27.41       27.36       27.30       27.23       27.16       27.08       27.00       26.90       26.80       26.68    
        26.56       26.42       26.26       26.09       25.90       25.69       25.44       25.15       24.80       24.34    
  20    27.66       27.66       27.65       27.63       27.62       27.59       27.57       27.54       27.50       27.46    
        27.41       27.36       27.30       27.23       27.16       27.08       27.00       26.90       26.80       26.68    
        26.56       26.42       26.26       26.09       25.90       25.69       25.44       25.15       24.80       24.34    
  21    27.66       27.66       27.65       27.63       27.62       27.59       27.57       27.54       27.50       27.46    
        27.41       27.36       27.30       27.23       27.16       27.08       27.00       26.90       26.80       26.68    
        26.56       26.42       26.26       26.09       25.90       25.69       25.44       25.15       24.80       24.34    
  22    27.66       27.66       27.65       27.63       27.62       27.59       27.57       27.54       27.50       27.46    
        27.41       27.36       27.30       27.23       27.16       27.08       27.00       26.90       26.80       26.68    
        26.56       26.42       26.26       26.09       25.90       25.69       25.44       25.15       24.80       24.34    
  23    27.66       27.66       27.65       27.63       27.62       27.59       27.57       27.54       27.50       27.46    
        27.41       27.36       27.30       27.23       27.16       27.08       27.00       26.90       26.80       26.68    
        26.56       26.42       26.26       26.09       25.90       25.69       25.44       25.15       24.80       24.34    
  24    27.66       27.66       27.65       27.63       27.62       27.59       27.57       27.54       27.50       27.46    
        27.41       27.36       27.30       27.23       27.16       27.08       27.00       26.90       26.80       26.68    
        26.56       26.42       26.26       26.09       25.90       25.69       25.44       25.15       24.80       24.34    
  25    27.66       27.66       27.65       27.63       27.62       27.59       27.57       27.54       27.50       27.46    
        27.41       27.36       27.30       27.23       27.16       27.08       27.00       26.90       26.80       26.68    
        26.56       26.42       26.26       26.09       25.90       25.69       25.44       25.15       24.80       24.34    
  26    27.66       27.66       27.65       27.63       27.62       27.59       27.57       27.54       27.50       27.46    
        27.41       27.36       27.30       27.23       27.16       27.08       27.00       26.90       26.80       26.68    
        26.56       26.42       26.26       26.09       25.90       25.69       25.44       25.15       24.80       24.34    
  27    27.66       27.66       27.65       27.63       27.62       27.59       27.57       27.54       27.50       27.46    
        27.41       27.36       27.30       27.23       27.16       27.08       27.00       26.90       26.80       26.68    
        26.56       26.42       26.26       26.09       25.90       25.69       25.44       25.15       24.80       24.34    
  28    27.66       27.66       27.65       27.63       27.62       27.59       27.57       27.54       27.50       27.46    
        27.41       27.36       27.30       27.23       27.16       27.08       27.00       26.90       26.80       26.68    
        26.56       26.42       26.26       26.09       25.90       25.69       25.44       25.15       24.80       24.34    
  29    27.66       27.66       27.65       27.63       27.62       27.59       27.57       27.54       27.50       27.46    
        27.41       27.36       27.30       27.23       27.16       27.08       27.00       26.90       26.80       26.68    
        26.56       26.42       26.26       26.09       25.90       25.69       25.44       25.15       24.80       24.34    
  30    27.66       27.66       27.65       27.63       27.62       27.59       27.57       27.54       27.50       27.46    
        27.41       27.36       27.30       27.23       27.16       27.08       27.00       26.90       26.80       26.68    
        26.56       26.42       26.26       26.09       25.90       25.69       25.44       25.15       24.80       24.34    

 HEAD WILL BE SAVED ON UNIT 1017 AT END OF TIME STEP   10, STRESS PERIOD   58


  VOLUME BUDGET FOR ENTIRE MODEL AT END OF TIME STEP   10, STRESS PERIOD  58
  ---------------------------------------------------------------------------------------------------

     CUMULATIVE VOLUME      L**3       RATES FOR THIS TIME STEP      L**3/T          PACKAGE NAME    
     ------------------                 ------------------------                     ----------------

           IN:                                      IN:
           ---                                      ---
              STO-SS =          96.4238                STO-SS =       1.3539E-02     STORAGE         
              STO-SY =       62534.1021                STO-SY =           9.3684     STORAGE         
                 RCH =      278042.5937                   RCH =         190.6849     RCHA            
                 CHD =        6024.4094                   CHD =           0.0000     CHD             

            TOTAL IN =      346697.5290              TOTAL IN =         200.0668

          OUT:                                     OUT:
          ----                                     ----
              STO-SS =          80.9824                STO-SS =       2.3210E-02     STORAGE         
              STO-SY =       52855.8918                STO-SY =          14.4750     STORAGE         
                 RCH =           0.0000                   RCH =           0.0000     RCHA            
                 CHD =      293759.7051                   CHD =         185.5652     CHD             

           TOTAL OUT =      346696.5793             TOTAL OUT =         200.0634

            IN - OUT =           0.9497              IN - OUT =       3.4066E-03

 PERCENT DISCREPANCY =           0.00     PERCENT DISCREPANCY =           0.00




         TIME SUMMARY AT END OF TIME STEP   10 IN STRESS PERIOD   58
                    SECONDS     MINUTES      HOURS       DAYS        YEARS
                    -----------------------------------------------------------
   TIME STEP LENGTH 2.59200E+05  4320.0      72.000      3.0000     8.21355E-03
 STRESS PERIOD TIME 2.59200E+06  43200.      720.00      30.000     8.21355E-02
         TOTAL TIME 1.47830E+08 2.46384E+06  41064.      1711.0      4.6845    

 OUTPUT CONTROL FOR STRESS PERIOD 59 IS REPEATED USING SETTINGS FROM A PREVIOUS STRESS PERIOD.


 STRESS PERIOD 59 IS TRANSIENT


                 RECHARGE =  0.2465750E-02
 UBDSV1 SAVING           STO-SS ON UNIT   1016 AT TIME STEP      1, STRESS PERIOD     59
 UBDSV1 SAVING           STO-SY ON UNIT   1016 AT TIME STEP      1, STRESS PERIOD     59
 UBDSV1 SAVING     FLOW-JA-FACE ON UNIT   1016 AT TIME STEP      1, STRESS PERIOD     59
 UBDSV06 SAVING              RCH IN MODEL TEST_TRANS       PACKAGE TEST_TRANS      CONNECTED TO MODEL TEST_TRANS       PACKAGE RCHA             ON UNIT   1016 AT TIME STEP      1, STRESS PERIOD     59
 UBDSV06 SAVING              CHD IN MODEL TEST_TRANS       PACKAGE TEST_TRANS      CONNECTED TO MODEL TEST_TRANS       PACKAGE CHD              ON UNIT   1016 AT TIME STEP      1, STRESS PERIOD     59
1
  HEAD IN LAYER   1 AT END OF TIME STEP   1 IN STRESS PERIOD   59
  ---------------------------------------------------------------------------

            1           2           3           4           5           6           7           8           9          10
           11          12          13          14          15          16          17          18          19          20
           21          22          23          24          25          26          27          28          29          30
 ........................................................................................................................
   1    27.67       27.67       27.66       27.64       27.63       27.60       27.58       27.54       27.51       27.47    
        27.42       27.36       27.31       27.24       27.17       27.09       27.00       26.90       26.80       26.68    
        26.56       26.42       26.26       26.09       25.90       25.68       25.43       25.14       24.77       24.24    
   2    27.67       27.67       27.66       27.64       27.63       27.60       27.58       27.54       27.51       27.47    
        27.42       27.36       27.31       27.24       27.17       27.09       27.00       26.90       26.80       26.68    
        26.56       26.42       26.26       26.09       25.90       25.68       25.43       25.14       24.77       24.24    
   3    27.67       27.67       27.66       27.64       27.63       27.60       27.58       27.54       27.51       27.47    
        27.42       27.36       27.31       27.24       27.17       27.09       27.00       26.90       26.80       26.68    
        26.56       26.42       26.26       26.09       25.90       25.68       25.43       25.14       24.77       24.24    
   4    27.67       27.67       27.66       27.64       27.63       27.60       27.58       27.54       27.51       27.47    
        27.42       27.36       27.31       27.24       27.17       27.09       27.00       26.90       26.80       26.68    
        26.56       26.42       26.26       26.09       25.90       25.68       25.43       25.14       24.77       24.24    
   5    27.67       27.67       27.66       27.64       27.63       27.60       27.58       27.54       27.51       27.47    
        27.42       27.36       27.31       27.24       27.17       27.09       27.00       26.90       26.80       26.68    
        26.56       26.42       26.26       26.09       25.90       25.68       25.43       25.14       24.77       24.24    
   6    27.67       27.67       27.66       27.64       27.63       27.60       27.58       27.54       27.51       27.47    
        27.42       27.36       27.31       27.24       27.17       27.09       27.00       26.90       26.80       26.68    
        26.56       26.42       26.26       26.09       25.90       25.68       25.43       25.14       24.77       24.24    
   7    27.67       27.67       27.66       27.64       27.63       27.60       27.58       27.54       27.51       27.47    
        27.42       27.36       27.31       27.24       27.17       27.09       27.00       26.90       26.80       26.68    
        26.56       26.42       26.26       26.09       25.90       25.68       25.43       25.14       24.77       24.24    
   8    27.67       27.67       27.66       27.64       27.63       27.60       27.58       27.54       27.51       27.47    
        27.42       27.36       27.31       27.24       27.17       27.09       27.00       26.90       26.80       26.68    
        26.56       26.42       26.26       26.09       25.90       25.68       25.43       25.14       24.77       24.24    
   9    27.67       27.67       27.66       27.64       27.63       27.60       27.58       27.54       27.51       27.47    
        27.42       27.36       27.31       27.24       27.17       27.09       27.00       26.90       26.80       26.68    
        26.56       26.42       26.26       26.09       25.90       25.68       25.43       25.14       24.77       24.24    
  10    27.67       27.67       27.66       27.64       27.63       27.60       27.58       27.54       27.51       27.47    
        27.42       27.36       27.31       27.24       27.17       27.09       27.00       26.90       26.80       26.68    
        26.56       26.42       26.26       26.09       25.90       25.68       25.43       25.14       24.77       24.24    
  11    27.67       27.67       27.66       27.64       27.63       27.60       27.58       27.54       27.51       27.47    
        27.42       27.36       27.31       27.24       27.17       27.09       27.00       26.90       26.80       26.68    
        26.56       26.42       26.26       26.09       25.90       25.68       25.43       25.14       24.77       24.24    
  12    27.67       27.67       27.66       27.64       27.63       27.60       27.58       27.54       27.51       27.47    
        27.42       27.36       27.31       27.24       27.17       27.09       27.00       26.90       26.80       26.68    
        26.56       26.42       26.26       26.09       25.90       25.68       25.43       25.14       24.77       24.24    
  13    27.67       27.67       27.66       27.64       27.63       27.60       27.58       27.54       27.51       27.47    
        27.42       27.36       27.31       27.24       27.17       27.09       27.00       26.90       26.80       26.68    
        26.56       26.42       26.26       26.09       25.90       25.68       25.43       25.14       24.77       24.24    
  14    27.67       27.67       27.66       27.64       27.63       27.60       27.58       27.54       27.51       27.47    
        27.42       27.36       27.31       27.24       27.17       27.09       27.00       26.90       26.80       26.68    
        26.56       26.42       26.26       26.09       25.90       25.68       25.43       25.14       24.77       24.24    
  15    27.67       27.67       27.66       27.64       27.63       27.60       27.58       27.54       27.51       27.47    
        27.42       27.36       27.31       27.24       27.17       27.09       27.00       26.90       26.80       26.68    
        26.56       26.42       26.26       26.09       25.90       25.68       25.43       25.14       24.77       24.24    
  16    27.67       27.67       27.66       27.64       27.63       27.60       27.58       27.54       27.51       27.47    
        27.42       27.36       27.31       27.24       27.17       27.09       27.00       26.90       26.80       26.68    
        26.56       26.42       26.26       26.09       25.90       25.68       25.43       25.14       24.77       24.24    
  17    27.67       27.67       27.66       27.64       27.63       27.60       27.58       27.54       27.51       27.47    
        27.42       27.36       27.31       27.24       27.17       27.09       27.00       26.90       26.80       26.68    
        26.56       26.42       26.26       26.09       25.90       25.68       25.43       25.14       24.77       24.24    
  18    27.67       27.67       27.66       27.64       27.63       27.60       27.58       27.54       27.51       27.47    
        27.42       27.36       27.31       27.24       27.17       27.09       27.00       26.90       26.80       26.68    
        26.56       26.42       26.26       26.09       25.90       25.68       25.43       25.14       24.77       24.24    
  19    27.67       27.67       27.66       27.64       27.63       27.60       27.58       27.54       27.51       27.47    
        27.42       27.36       27.31       27.24       27.17       27.09       27.00       26.90       26.80       26.68    
        26.56       26.42       26.26       26.09       25.90       25.68       25.43       25.14       24.77       24.24    
  20    27.67       27.67       27.66       27.64       27.63       27.60       27.58       27.54       27.51       27.47    
        27.42       27.36       27.31       27.24       27.17       27.09       27.00       26.90       26.80       26.68    
        26.56       26.42       26.26       26.09       25.90       25.68       25.43       25.14       24.77       24.24    
  21    27.67       27.67       27.66       27.64       27.63       27.60       27.58       27.54       27.51       27.47    
        27.42       27.36       27.31       27.24       27.17       27.09       27.00       26.90       26.80       26.68    
        26.56       26.42       26.26       26.09       25.90       25.68       25.43       25.14       24.77       24.24    
  22    27.67       27.67       27.66       27.64       27.63       27.60       27.58       27.54       27.51       27.47    
        27.42       27.36       27.31       27.24       27.17       27.09       27.00       26.90       26.80       26.68    
        26.56       26.42       26.26       26.09       25.90       25.68       25.43       25.14       24.77       24.24    
  23    27.67       27.67       27.66       27.64       27.63       27.60       27.58       27.54       27.51       27.47    
        27.42       27.36       27.31       27.24       27.17       27.09       27.00       26.90       26.80       26.68    
        26.56       26.42       26.26       26.09       25.90       25.68       25.43       25.14       24.77       24.24    
  24    27.67       27.67       27.66       27.64       27.63       27.60       27.58       27.54       27.51       27.47    
        27.42       27.36       27.31       27.24       27.17       27.09       27.00       26.90       26.80       26.68    
        26.56       26.42       26.26       26.09       25.90       25.68       25.43       25.14       24.77       24.24    
  25    27.67       27.67       27.66       27.64       27.63       27.60       27.58       27.54       27.51       27.47    
        27.42       27.36       27.31       27.24       27.17       27.09       27.00       26.90       26.80       26.68    
        26.56       26.42       26.26       26.09       25.90       25.68       25.43       25.14       24.77       24.24    
  26    27.67       27.67       27.66       27.64       27.63       27.60       27.58       27.54       27.51       27.47    
        27.42       27.36       27.31       27.24       27.17       27.09       27.00       26.90       26.80       26.68    
        26.56       26.42       26.26       26.09       25.90       25.68       25.43       25.14       24.77       24.24    
  27    27.67       27.67       27.66       27.64       27.63       27.60       27.58       27.54       27.51       27.47    
        27.42       27.36       27.31       27.24       27.17       27.09       27.00       26.90       26.80       26.68    
        26.56       26.42       26.26       26.09       25.90       25.68       25.43       25.14       24.77       24.24    
  28    27.67       27.67       27.66       27.64       27.63       27.60       27.58       27.54       27.51       27.47    
        27.42       27.36       27.31       27.24       27.17       27.09       27.00       26.90       26.80       26.68    
        26.56       26.42       26.26       26.09       25.90       25.68       25.43       25.14       24.77       24.24    
  29    27.67       27.67       27.66       27.64       27.63       27.60       27.58       27.54       27.51       27.47    
        27.42       27.36       27.31       27.24       27.17       27.09       27.00       26.90       26.80       26.68    
        26.56       26.42       26.26       26.09       25.90       25.68       25.43       25.14       24.77       24.24    
  30    27.67       27.67       27.66       27.64       27.63       27.60       27.58       27.54       27.51       27.47    
        27.42       27.36       27.31       27.24       27.17       27.09       27.00       26.90       26.80       26.68    
        26.56       26.42       26.26       26.09       25.90       25.68       25.43       25.14       24.77       24.24    

 HEAD WILL BE SAVED ON UNIT 1017 AT END OF TIME STEP    1, STRESS PERIOD   59



         TIME SUMMARY AT END OF TIME STEP    1 IN STRESS PERIOD   59
                    SECONDS     MINUTES      HOURS       DAYS        YEARS
                    -----------------------------------------------------------
   TIME STEP LENGTH 2.59200E+05  4320.0      72.000      3.0000     8.21355E-03
 STRESS PERIOD TIME 2.59200E+05  4320.0      72.000      3.0000     8.21355E-03
         TOTAL TIME 1.48090E+08 2.46816E+06  41136.      1714.0      4.6927    
 UBDSV1 SAVING           STO-SS ON UNIT   1016 AT TIME STEP      2, STRESS PERIOD     59
 UBDSV1 SAVING           STO-SY ON UNIT   1016 AT TIME STEP      2, STRESS PERIOD     59
 UBDSV1 SAVING     FLOW-JA-FACE ON UNIT   1016 AT TIME STEP      2, STRESS PERIOD     59
 UBDSV06 SAVING              RCH IN MODEL TEST_TRANS       PACKAGE TEST_TRANS      CONNECTED TO MODEL TEST_TRANS       PACKAGE RCHA             ON UNIT   1016 AT TIME STEP      2, STRESS PERIOD     59
 UBDSV06 SAVING              CHD IN MODEL TEST_TRANS       PACKAGE TEST_TRANS      CONNECTED TO MODEL TEST_TRANS       PACKAGE CHD              ON UNIT   1016 AT TIME STEP      2, STRESS PERIOD     59

 HEAD WILL BE SAVED ON UNIT 1017 AT END OF TIME STEP    2, STRESS PERIOD   59
 UBDSV1 SAVING           STO-SS ON UNIT   1016 AT TIME STEP      3, STRESS PERIOD     59
 UBDSV1 SAVING           STO-SY ON UNIT   1016 AT TIME STEP      3, STRESS PERIOD     59
 UBDSV1 SAVING     FLOW-JA-FACE ON UNIT   1016 AT TIME STEP      3, STRESS PERIOD     59
 UBDSV06 SAVING              RCH IN MODEL TEST_TRANS       PACKAGE TEST_TRANS      CONNECTED TO MODEL TEST_TRANS       PACKAGE RCHA             ON UNIT   1016 AT TIME STEP      3, STRESS PERIOD     59
 UBDSV06 SAVING              CHD IN MODEL TEST_TRANS       PACKAGE TEST_TRANS      CONNECTED TO MODEL TEST_TRANS       PACKAGE CHD              ON UNIT   1016 AT TIME STEP      3, STRESS PERIOD     59

 HEAD WILL BE SAVED ON UNIT 1017 AT END OF TIME STEP    3, STRESS PERIOD   59
 UBDSV1 SAVING           STO-SS ON UNIT   1016 AT TIME STEP      4, STRESS PERIOD     59
 UBDSV1 SAVING           STO-SY ON UNIT   1016 AT TIME STEP      4, STRESS PERIOD     59
 UBDSV1 SAVING     FLOW-JA-FACE ON UNIT   1016 AT TIME STEP      4, STRESS PERIOD     59
 UBDSV06 SAVING              RCH IN MODEL TEST_TRANS       PACKAGE TEST_TRANS      CONNECTED TO MODEL TEST_TRANS       PACKAGE RCHA             ON UNIT   1016 AT TIME STEP      4, STRESS PERIOD     59
 UBDSV06 SAVING              CHD IN MODEL TEST_TRANS       PACKAGE TEST_TRANS      CONNECTED TO MODEL TEST_TRANS       PACKAGE CHD              ON UNIT   1016 AT TIME STEP      4, STRESS PERIOD     59

 HEAD WILL BE SAVED ON UNIT 1017 AT END OF TIME STEP    4, STRESS PERIOD   59
 UBDSV1 SAVING           STO-SS ON UNIT   1016 AT TIME STEP      5, STRESS PERIOD     59
 UBDSV1 SAVING           STO-SY ON UNIT   1016 AT TIME STEP      5, STRESS PERIOD     59
 UBDSV1 SAVING     FLOW-JA-FACE ON UNIT   1016 AT TIME STEP      5, STRESS PERIOD     59
 UBDSV06 SAVING              RCH IN MODEL TEST_TRANS       PACKAGE TEST_TRANS      CONNECTED TO MODEL TEST_TRANS       PACKAGE RCHA             ON UNIT   1016 AT TIME STEP      5, STRESS PERIOD     59
 UBDSV06 SAVING              CHD IN MODEL TEST_TRANS       PACKAGE TEST_TRANS      CONNECTED TO MODEL TEST_TRANS       PACKAGE CHD              ON UNIT   1016 AT TIME STEP      5, STRESS PERIOD     59

 HEAD WILL BE SAVED ON UNIT 1017 AT END OF TIME STEP    5, STRESS PERIOD   59
 UBDSV1 SAVING           STO-SS ON UNIT   1016 AT TIME STEP      6, STRESS PERIOD     59
 UBDSV1 SAVING           STO-SY ON UNIT   1016 AT TIME STEP      6, STRESS PERIOD     59
 UBDSV1 SAVING     FLOW-JA-FACE ON UNIT   1016 AT TIME STEP      6, STRESS PERIOD     59
 UBDSV06 SAVING              RCH IN MODEL TEST_TRANS       PACKAGE TEST_TRANS      CONNECTED TO MODEL TEST_TRANS       PACKAGE RCHA             ON UNIT   1016 AT TIME STEP      6, STRESS PERIOD     59
 UBDSV06 SAVING              CHD IN MODEL TEST_TRANS       PACKAGE TEST_TRANS      CONNECTED TO MODEL TEST_TRANS       PACKAGE CHD              ON UNIT   1016 AT TIME STEP      6, STRESS PERIOD     59

 HEAD WILL BE SAVED ON UNIT 1017 AT END OF TIME STEP    6, STRESS PERIOD   59
 UBDSV1 SAVING           STO-SS ON UNIT   1016 AT TIME STEP      7, STRESS PERIOD     59
 UBDSV1 SAVING           STO-SY ON UNIT   1016 AT TIME STEP      7, STRESS PERIOD     59
 UBDSV1 SAVING     FLOW-JA-FACE ON UNIT   1016 AT TIME STEP      7, STRESS PERIOD     59
 UBDSV06 SAVING              RCH IN MODEL TEST_TRANS       PACKAGE TEST_TRANS      CONNECTED TO MODEL TEST_TRANS       PACKAGE RCHA             ON UNIT   1016 AT TIME STEP      7, STRESS PERIOD     59
 UBDSV06 SAVING              CHD IN MODEL TEST_TRANS       PACKAGE TEST_TRANS      CONNECTED TO MODEL TEST_TRANS       PACKAGE CHD              ON UNIT   1016 AT TIME STEP      7, STRESS PERIOD     59

 HEAD WILL BE SAVED ON UNIT 1017 AT END OF TIME STEP    7, STRESS PERIOD   59
 UBDSV1 SAVING           STO-SS ON UNIT   1016 AT TIME STEP      8, STRESS PERIOD     59
 UBDSV1 SAVING           STO-SY ON UNIT   1016 AT TIME STEP      8, STRESS PERIOD     59
 UBDSV1 SAVING     FLOW-JA-FACE ON UNIT   1016 AT TIME STEP      8, STRESS PERIOD     59
 UBDSV06 SAVING              RCH IN MODEL TEST_TRANS       PACKAGE TEST_TRANS      CONNECTED TO MODEL TEST_TRANS       PACKAGE RCHA             ON UNIT   1016 AT TIME STEP      8, STRESS PERIOD     59
 UBDSV06 SAVING              CHD IN MODEL TEST_TRANS       PACKAGE TEST_TRANS      CONNECTED TO MODEL TEST_TRANS       PACKAGE CHD              ON UNIT   1016 AT TIME STEP      8, STRESS PERIOD     59

 HEAD WILL BE SAVED ON UNIT 1017 AT END OF TIME STEP    8, STRESS PERIOD   59
 UBDSV1 SAVING           STO-SS ON UNIT   1016 AT TIME STEP      9, STRESS PERIOD     59
 UBDSV1 SAVING           STO-SY ON UNIT   1016 AT TIME STEP      9, STRESS PERIOD     59
 UBDSV1 SAVING     FLOW-JA-FACE ON UNIT   1016 AT TIME STEP      9, STRESS PERIOD     59
 UBDSV06 SAVING              RCH IN MODEL TEST_TRANS       PACKAGE TEST_TRANS      CONNECTED TO MODEL TEST_TRANS       PACKAGE RCHA             ON UNIT   1016 AT TIME STEP      9, STRESS PERIOD     59
 UBDSV06 SAVING              CHD IN MODEL TEST_TRANS       PACKAGE TEST_TRANS      CONNECTED TO MODEL TEST_TRANS       PACKAGE CHD              ON UNIT   1016 AT TIME STEP      9, STRESS PERIOD     59

 HEAD WILL BE SAVED ON UNIT 1017 AT END OF TIME STEP    9, STRESS PERIOD   59
 UBDSV1 SAVING           STO-SS ON UNIT   1016 AT TIME STEP     10, STRESS PERIOD     59
 UBDSV1 SAVING           STO-SY ON UNIT   1016 AT TIME STEP     10, STRESS PERIOD     59
 UBDSV1 SAVING     FLOW-JA-FACE ON UNIT   1016 AT TIME STEP     10, STRESS PERIOD     59
 UBDSV06 SAVING              RCH IN MODEL TEST_TRANS       PACKAGE TEST_TRANS      CONNECTED TO MODEL TEST_TRANS       PACKAGE RCHA             ON UNIT   1016 AT TIME STEP     10, STRESS PERIOD     59
 UBDSV06 SAVING              CHD IN MODEL TEST_TRANS       PACKAGE TEST_TRANS      CONNECTED TO MODEL TEST_TRANS       PACKAGE CHD              ON UNIT   1016 AT TIME STEP     10, STRESS PERIOD     59
1
  HEAD IN LAYER   1 AT END OF TIME STEP  10 IN STRESS PERIOD   59
  ---------------------------------------------------------------------------

            1           2           3           4           5           6           7           8           9          10
           11          12          13          14          15          16          17          18          19          20
           21          22          23          24          25          26          27          28          29          30
 ........................................................................................................................
   1    27.75       27.74       27.74       27.72       27.70       27.68       27.65       27.61       27.57       27.53    
        27.48       27.42       27.36       27.29       27.21       27.13       27.03       26.93       26.82       26.70    
        26.57       26.43       26.27       26.09       25.89       25.67       25.41       25.11       24.75       24.24    
   2    27.75       27.74       27.74       27.72       27.70       27.68       27.65       27.61       27.57       27.53    
        27.48       27.42       27.36       27.29       27.21       27.13       27.03       26.93       26.82       26.70    
        26.57       26.43       26.27       26.09       25.89       25.67       25.41       25.11       24.75       24.24    
   3    27.75       27.74       27.74       27.72       27.70       27.68       27.65       27.61       27.57       27.53    
        27.48       27.42       27.36       27.29       27.21       27.13       27.03       26.93       26.82       26.70    
        26.57       26.43       26.27       26.09       25.89       25.67       25.41       25.11       24.75       24.24    
   4    27.75       27.74       27.74       27.72       27.70       27.68       27.65       27.61       27.57       27.53    
        27.48       27.42       27.36       27.29       27.21       27.13       27.03       26.93       26.82       26.70    
        26.57       26.43       26.27       26.09       25.89       25.67       25.41       25.11       24.75       24.24    
   5    27.75       27.74       27.74       27.72       27.70       27.68       27.65       27.61       27.57       27.53    
        27.48       27.42       27.36       27.29       27.21       27.13       27.03       26.93       26.82       26.70    
        26.57       26.43       26.27       26.09       25.89       25.67       25.41       25.11       24.75       24.24    
   6    27.75       27.74       27.74       27.72       27.70       27.68       27.65       27.61       27.57       27.53    
        27.48       27.42       27.36       27.29       27.21       27.13       27.03       26.93       26.82       26.70    
        26.57       26.43       26.27       26.09       25.89       25.67       25.41       25.11       24.75       24.24    
   7    27.75       27.74       27.74       27.72       27.70       27.68       27.65       27.61       27.57       27.53    
        27.48       27.42       27.36       27.29       27.21       27.13       27.03       26.93       26.82       26.70    
        26.57       26.43       26.27       26.09       25.89       25.67       25.41       25.11       24.75       24.24    
   8    27.75       27.74       27.74       27.72       27.70       27.68       27.65       27.61       27.57       27.53    
        27.48       27.42       27.36       27.29       27.21       27.13       27.03       26.93       26.82       26.70    
        26.57       26.43       26.27       26.09       25.89       25.67       25.41       25.11       24.75       24.24    
   9    27.75       27.74       27.74       27.72       27.70       27.68       27.65       27.61       27.57       27.53    
        27.48       27.42       27.36       27.29       27.21       27.13       27.03       26.93       26.82       26.70    
        26.57       26.43       26.27       26.09       25.89       25.67       25.41       25.11       24.75       24.24    
  10    27.75       27.74       27.74       27.72       27.70       27.68       27.65       27.61       27.57       27.53    
        27.48       27.42       27.36       27.29       27.21       27.13       27.03       26.93       26.82       26.70    
        26.57       26.43       26.27       26.09       25.89       25.67       25.41       25.11       24.75       24.24    
  11    27.75       27.74       27.74       27.72       27.70       27.68       27.65       27.61       27.57       27.53    
        27.48       27.42       27.36       27.29       27.21       27.13       27.03       26.93       26.82       26.70    
        26.57       26.43       26.27       26.09       25.89       25.67       25.41       25.11       24.75       24.24    
  12    27.75       27.74       27.74       27.72       27.70       27.68       27.65       27.61       27.57       27.53    
        27.48       27.42       27.36       27.29       27.21       27.13       27.03       26.93       26.82       26.70    
        26.57       26.43       26.27       26.09       25.89       25.67       25.41       25.11       24.75       24.24    
  13    27.75       27.74       27.74       27.72       27.70       27.68       27.65       27.61       27.57       27.53    
        27.48       27.42       27.36       27.29       27.21       27.13       27.03       26.93       26.82       26.70    
        26.57       26.43       26.27       26.09       25.89       25.67       25.41       25.11       24.75       24.24    
  14    27.75       27.74       27.74       27.72       27.70       27.68       27.65       27.61       27.57       27.53    
        27.48       27.42       27.36       27.29       27.21       27.13       27.03       26.93       26.82       26.70    
        26.57       26.43       26.27       26.09       25.89       25.67       25.41       25.11       24.75       24.24    
  15    27.75       27.74       27.74       27.72       27.70       27.68       27.65       27.61       27.57       27.53    
        27.48       27.42       27.36       27.29       27.21       27.13       27.03       26.93       26.82       26.70    
        26.57       26.43       26.27       26.09       25.89       25.67       25.41       25.11       24.75       24.24    
  16    27.75       27.74       27.74       27.72       27.70       27.68       27.65       27.61       27.57       27.53    
        27.48       27.42       27.36       27.29       27.21       27.13       27.03       26.93       26.82       26.70    
        26.57       26.43       26.27       26.09       25.89       25.67       25.41       25.11       24.75       24.24    
  17    27.75       27.74       27.74       27.72       27.70       27.68       27.65       27.61       27.57       27.53    
        27.48       27.42       27.36       27.29       27.21       27.13       27.03       26.93       26.82       26.70    
        26.57       26.43       26.27       26.09       25.89       25.67       25.41       25.11       24.75       24.24    
  18    27.75       27.74       27.74       27.72       27.70       27.68       27.65       27.61       27.57       27.53    
        27.48       27.42       27.36       27.29       27.21       27.13       27.03       26.93       26.82       26.70    
        26.57       26.43       26.27       26.09       25.89       25.67       25.41       25.11       24.75       24.24    
  19    27.75       27.74       27.74       27.72       27.70       27.68       27.65       27.61       27.57       27.53    
        27.48       27.42       27.36       27.29       27.21       27.13       27.03       26.93       26.82       26.70    
        26.57       26.43       26.27       26.09       25.89       25.67       25.41       25.11       24.75       24.24    
  20    27.75       27.74       27.74       27.72       27.70       27.68       27.65       27.61       27.57       27.53    
        27.48       27.42       27.36       27.29       27.21       27.13       27.03       26.93       26.82       26.70    
        26.57       26.43       26.27       26.09       25.89       25.67       25.41       25.11       24.75       24.24    
  21    27.75       27.74       27.74       27.72       27.70       27.68       27.65       27.61       27.57       27.53    
        27.48       27.42       27.36       27.29       27.21       27.13       27.03       26.93       26.82       26.70    
        26.57       26.43       26.27       26.09       25.89       25.67       25.41       25.11       24.75       24.24    
  22    27.75       27.74       27.74       27.72       27.70       27.68       27.65       27.61       27.57       27.53    
        27.48       27.42       27.36       27.29       27.21       27.13       27.03       26.93       26.82       26.70    
        26.57       26.43       26.27       26.09       25.89       25.67       25.41       25.11       24.75       24.24    
  23    27.75       27.74       27.74       27.72       27.70       27.68       27.65       27.61       27.57       27.53    
        27.48       27.42       27.36       27.29       27.21       27.13       27.03       26.93       26.82       26.70    
        26.57       26.43       26.27       26.09       25.89       25.67       25.41       25.11       24.75       24.24    
  24    27.75       27.74       27.74       27.72       27.70       27.68       27.65       27.61       27.57       27.53    
        27.48       27.42       27.36       27.29       27.21       27.13       27.03       26.93       26.82       26.70    
        26.57       26.43       26.27       26.09       25.89       25.67       25.41       25.11       24.75       24.24    
  25    27.75       27.74       27.74       27.72       27.70       27.68       27.65       27.61       27.57       27.53    
        27.48       27.42       27.36       27.29       27.21       27.13       27.03       26.93       26.82       26.70    
        26.57       26.43       26.27       26.09       25.89       25.67       25.41       25.11       24.75       24.24    
  26    27.75       27.74       27.74       27.72       27.70       27.68       27.65       27.61       27.57       27.53    
        27.48       27.42       27.36       27.29       27.21       27.13       27.03       26.93       26.82       26.70    
        26.57       26.43       26.27       26.09       25.89       25.67       25.41       25.11       24.75       24.24    
  27    27.75       27.74       27.74       27.72       27.70       27.68       27.65       27.61       27.57       27.53    
        27.48       27.42       27.36       27.29       27.21       27.13       27.03       26.93       26.82       26.70    
        26.57       26.43       26.27       26.09       25.89       25.67       25.41       25.11       24.75       24.24    
  28    27.75       27.74       27.74       27.72       27.70       27.68       27.65       27.61       27.57       27.53    
        27.48       27.42       27.36       27.29       27.21       27.13       27.03       26.93       26.82       26.70    
        26.57       26.43       26.27       26.09       25.89       25.67       25.41       25.11       24.75       24.24    
  29    27.75       27.74       27.74       27.72       27.70       27.68       27.65       27.61       27.57       27.53    
        27.48       27.42       27.36       27.29       27.21       27.13       27.03       26.93       26.82       26.70    
        26.57       26.43       26.27       26.09       25.89       25.67       25.41       25.11       24.75       24.24    
  30    27.75       27.74       27.74       27.72       27.70       27.68       27.65       27.61       27.57       27.53    
        27.48       27.42       27.36       27.29       27.21       27.13       27.03       26.93       26.82       26.70    
        26.57       26.43       26.27       26.09       25.89       25.67       25.41       25.11       24.75       24.24    

 HEAD WILL BE SAVED ON UNIT 1017 AT END OF TIME STEP   10, STRESS PERIOD   59


  VOLUME BUDGET FOR ENTIRE MODEL AT END OF TIME STEP   10, STRESS PERIOD  59
  ---------------------------------------------------------------------------------------------------

     CUMULATIVE VOLUME      L**3       RATES FOR THIS TIME STEP      L**3/T          PACKAGE NAME    
     ------------------                 ------------------------                     ----------------

           IN:                                      IN:
           ---                                      ---
              STO-SS =          96.5644                STO-SS =           0.0000     STORAGE         
              STO-SY =       62636.2503                STO-SY =           0.0000     STORAGE         
                 RCH =      284478.2012                   RCH =         214.5203     RCHA            
                 CHD =        6024.4094                   CHD =           0.0000     CHD             

            TOTAL IN =      353235.4253              TOTAL IN =         214.5203

          OUT:                                     OUT:
          ----                                     ----
              STO-SS =          82.2495                STO-SS =       3.9777E-02     STORAGE         
              STO-SY =       53650.2565                STO-SY =          25.0140     STORAGE         
                 RCH =           0.0000                   RCH =           0.0000     RCHA            
                 CHD =      299502.0320                   CHD =         189.4761     CHD             

           TOTAL OUT =      353234.5380             TOTAL OUT =         214.5299

            IN - OUT =           0.8873              IN - OUT =      -9.6054E-03

 PERCENT DISCREPANCY =           0.00     PERCENT DISCREPANCY =          -0.00




         TIME SUMMARY AT END OF TIME STEP   10 IN STRESS PERIOD   59
                    SECONDS     MINUTES      HOURS       DAYS        YEARS
                    -----------------------------------------------------------
   TIME STEP LENGTH 2.59200E+05  4320.0      72.000      3.0000     8.21355E-03
 STRESS PERIOD TIME 2.59200E+06  43200.      720.00      30.000     8.21355E-02
         TOTAL TIME 1.50422E+08 2.50704E+06  41784.      1741.0      4.7666    

 OUTPUT CONTROL FOR STRESS PERIOD 60 IS REPEATED USING SETTINGS FROM A PREVIOUS STRESS PERIOD.


 STRESS PERIOD 60 IS TRANSIENT


                 RECHARGE =  0.2739730E-02
 UBDSV1 SAVING           STO-SS ON UNIT   1016 AT TIME STEP      1, STRESS PERIOD     60
 UBDSV1 SAVING           STO-SY ON UNIT   1016 AT TIME STEP      1, STRESS PERIOD     60
 UBDSV1 SAVING     FLOW-JA-FACE ON UNIT   1016 AT TIME STEP      1, STRESS PERIOD     60
 UBDSV06 SAVING              RCH IN MODEL TEST_TRANS       PACKAGE TEST_TRANS      CONNECTED TO MODEL TEST_TRANS       PACKAGE RCHA             ON UNIT   1016 AT TIME STEP      1, STRESS PERIOD     60
 UBDSV06 SAVING              CHD IN MODEL TEST_TRANS       PACKAGE TEST_TRANS      CONNECTED TO MODEL TEST_TRANS       PACKAGE CHD              ON UNIT   1016 AT TIME STEP      1, STRESS PERIOD     60
1
  HEAD IN LAYER   1 AT END OF TIME STEP   1 IN STRESS PERIOD   60
  ---------------------------------------------------------------------------

            1           2           3           4           5           6           7           8           9          10
           11          12          13          14          15          16          17          18          19          20
           21          22          23          24          25          26          27          28          29          30
 ........................................................................................................................
   1    27.76       27.76       27.75       27.73       27.71       27.69       27.66       27.62       27.58       27.54    
        27.49       27.43       27.37       27.30       27.22       27.14       27.04       26.94       26.83       26.71    
        26.58       26.43       26.27       26.09       25.89       25.67       25.40       25.09       24.69       24.06    
   2    27.76       27.76       27.75       27.73       27.71       27.69       27.66       27.62       27.58       27.54    
        27.49       27.43       27.37       27.30       27.22       27.14       27.04       26.94       26.83       26.71    
        26.58       26.43       26.27       26.09       25.89       25.67       25.40       25.09       24.69       24.06    
   3    27.76       27.76       27.75       27.73       27.71       27.69       27.66       27.62       27.58       27.54    
        27.49       27.43       27.37       27.30       27.22       27.14       27.04       26.94       26.83       26.71    
        26.58       26.43       26.27       26.09       25.89       25.67       25.40       25.09       24.69       24.06    
   4    27.76       27.76       27.75       27.73       27.71       27.69       27.66       27.62       27.58       27.54    
        27.49       27.43       27.37       27.30       27.22       27.14       27.04       26.94       26.83       26.71    
        26.58       26.43       26.27       26.09       25.89       25.67       25.40       25.09       24.69       24.06    
   5    27.76       27.76       27.75       27.73       27.71       27.69       27.66       27.62       27.58       27.54    
        27.49       27.43       27.37       27.30       27.22       27.14       27.04       26.94       26.83       26.71    
        26.58       26.43       26.27       26.09       25.89       25.67       25.40       25.09       24.69       24.06    
   6    27.76       27.76       27.75       27.73       27.71       27.69       27.66       27.62       27.58       27.54    
        27.49       27.43       27.37       27.30       27.22       27.14       27.04       26.94       26.83       26.71    
        26.58       26.43       26.27       26.09       25.89       25.67       25.40       25.09       24.69       24.06    
   7    27.76       27.76       27.75       27.73       27.71       27.69       27.66       27.62       27.58       27.54    
        27.49       27.43       27.37       27.30       27.22       27.14       27.04       26.94       26.83       26.71    
        26.58       26.43       26.27       26.09       25.89       25.67       25.40       25.09       24.69       24.06    
   8    27.76       27.76       27.75       27.73       27.71       27.69       27.66       27.62       27.58       27.54    
        27.49       27.43       27.37       27.30       27.22       27.14       27.04       26.94       26.83       26.71    
        26.58       26.43       26.27       26.09       25.89       25.67       25.40       25.09       24.69       24.06    
   9    27.76       27.76       27.75       27.73       27.71       27.69       27.66       27.62       27.58       27.54    
        27.49       27.43       27.37       27.30       27.22       27.14       27.04       26.94       26.83       26.71    
        26.58       26.43       26.27       26.09       25.89       25.67       25.40       25.09       24.69       24.06    
  10    27.76       27.76       27.75       27.73       27.71       27.69       27.66       27.62       27.58       27.54    
        27.49       27.43       27.37       27.30       27.22       27.14       27.04       26.94       26.83       26.71    
        26.58       26.43       26.27       26.09       25.89       25.67       25.40       25.09       24.69       24.06    
  11    27.76       27.76       27.75       27.73       27.71       27.69       27.66       27.62       27.58       27.54    
        27.49       27.43       27.37       27.30       27.22       27.14       27.04       26.94       26.83       26.71    
        26.58       26.43       26.27       26.09       25.89       25.67       25.40       25.09       24.69       24.06    
  12    27.76       27.76       27.75       27.73       27.71       27.69       27.66       27.62       27.58       27.54    
        27.49       27.43       27.37       27.30       27.22       27.14       27.04       26.94       26.83       26.71    
        26.58       26.43       26.27       26.09       25.89       25.67       25.40       25.09       24.69       24.06    
  13    27.76       27.76       27.75       27.73       27.71       27.69       27.66       27.62       27.58       27.54    
        27.49       27.43       27.37       27.30       27.22       27.14       27.04       26.94       26.83       26.71    
        26.58       26.43       26.27       26.09       25.89       25.67       25.40       25.09       24.69       24.06    
  14    27.76       27.76       27.75       27.73       27.71       27.69       27.66       27.62       27.58       27.54    
        27.49       27.43       27.37       27.30       27.22       27.14       27.04       26.94       26.83       26.71    
        26.58       26.43       26.27       26.09       25.89       25.67       25.40       25.09       24.69       24.06    
  15    27.76       27.76       27.75       27.73       27.71       27.69       27.66       27.62       27.58       27.54    
        27.49       27.43       27.37       27.30       27.22       27.14       27.04       26.94       26.83       26.71    
        26.58       26.43       26.27       26.09       25.89       25.67       25.40       25.09       24.69       24.06    
  16    27.76       27.76       27.75       27.73       27.71       27.69       27.66       27.62       27.58       27.54    
        27.49       27.43       27.37       27.30       27.22       27.14       27.04       26.94       26.83       26.71    
        26.58       26.43       26.27       26.09       25.89       25.67       25.40       25.09       24.69       24.06    
  17    27.76       27.76       27.75       27.73       27.71       27.69       27.66       27.62       27.58       27.54    
        27.49       27.43       27.37       27.30       27.22       27.14       27.04       26.94       26.83       26.71    
        26.58       26.43       26.27       26.09       25.89       25.67       25.40       25.09       24.69       24.06    
  18    27.76       27.76       27.75       27.73       27.71       27.69       27.66       27.62       27.58       27.54    
        27.49       27.43       27.37       27.30       27.22       27.14       27.04       26.94       26.83       26.71    
        26.58       26.43       26.27       26.09       25.89       25.67       25.40       25.09       24.69       24.06    
  19    27.76       27.76       27.75       27.73       27.71       27.69       27.66       27.62       27.58       27.54    
        27.49       27.43       27.37       27.30       27.22       27.14       27.04       26.94       26.83       26.71    
        26.58       26.43       26.27       26.09       25.89       25.67       25.40       25.09       24.69       24.06    
  20    27.76       27.76       27.75       27.73       27.71       27.69       27.66       27.62       27.58       27.54    
        27.49       27.43       27.37       27.30       27.22       27.14       27.04       26.94       26.83       26.71    
        26.58       26.43       26.27       26.09       25.89       25.67       25.40       25.09       24.69       24.06    
  21    27.76       27.76       27.75       27.73       27.71       27.69       27.66       27.62       27.58       27.54    
        27.49       27.43       27.37       27.30       27.22       27.14       27.04       26.94       26.83       26.71    
        26.58       26.43       26.27       26.09       25.89       25.67       25.40       25.09       24.69       24.06    
  22    27.76       27.76       27.75       27.73       27.71       27.69       27.66       27.62       27.58       27.54    
        27.49       27.43       27.37       27.30       27.22       27.14       27.04       26.94       26.83       26.71    
        26.58       26.43       26.27       26.09       25.89       25.67       25.40       25.09       24.69       24.06    
  23    27.76       27.76       27.75       27.73       27.71       27.69       27.66       27.62       27.58       27.54    
        27.49       27.43       27.37       27.30       27.22       27.14       27.04       26.94       26.83       26.71    
        26.58       26.43       26.27       26.09       25.89       25.67       25.40       25.09       24.69       24.06    
  24    27.76       27.76       27.75       27.73       27.71       27.69       27.66       27.62       27.58       27.54    
        27.49       27.43       27.37       27.30       27.22       27.14       27.04       26.94       26.83       26.71    
        26.58       26.43       26.27       26.09       25.89       25.67       25.40       25.09       24.69       24.06    
  25    27.76       27.76       27.75       27.73       27.71       27.69       27.66       27.62       27.58       27.54    
        27.49       27.43       27.37       27.30       27.22       27.14       27.04       26.94       26.83       26.71    
        26.58       26.43       26.27       26.09       25.89       25.67       25.40       25.09       24.69       24.06    
  26    27.76       27.76       27.75       27.73       27.71       27.69       27.66       27.62       27.58       27.54    
        27.49       27.43       27.37       27.30       27.22       27.14       27.04       26.94       26.83       26.71    
        26.58       26.43       26.27       26.09       25.89       25.67       25.40       25.09       24.69       24.06    
  27    27.76       27.76       27.75       27.73       27.71       27.69       27.66       27.62       27.58       27.54    
        27.49       27.43       27.37       27.30       27.22       27.14       27.04       26.94       26.83       26.71    
        26.58       26.43       26.27       26.09       25.89       25.67       25.40       25.09       24.69       24.06    
  28    27.76       27.76       27.75       27.73       27.71       27.69       27.66       27.62       27.58       27.54    
        27.49       27.43       27.37       27.30       27.22       27.14       27.04       26.94       26.83       26.71    
        26.58       26.43       26.27       26.09       25.89       25.67       25.40       25.09       24.69       24.06    
  29    27.76       27.76       27.75       27.73       27.71       27.69       27.66       27.62       27.58       27.54    
        27.49       27.43       27.37       27.30       27.22       27.14       27.04       26.94       26.83       26.71    
        26.58       26.43       26.27       26.09       25.89       25.67       25.40       25.09       24.69       24.06    
  30    27.76       27.76       27.75       27.73       27.71       27.69       27.66       27.62       27.58       27.54    
        27.49       27.43       27.37       27.30       27.22       27.14       27.04       26.94       26.83       26.71    
        26.58       26.43       26.27       26.09       25.89       25.67       25.40       25.09       24.69       24.06    

 HEAD WILL BE SAVED ON UNIT 1017 AT END OF TIME STEP    1, STRESS PERIOD   60



         TIME SUMMARY AT END OF TIME STEP    1 IN STRESS PERIOD   60
                    SECONDS     MINUTES      HOURS       DAYS        YEARS
                    -----------------------------------------------------------
   TIME STEP LENGTH 2.59200E+05  4320.0      72.000      3.0000     8.21355E-03
 STRESS PERIOD TIME 2.59200E+05  4320.0      72.000      3.0000     8.21355E-03
         TOTAL TIME 1.50682E+08 2.51136E+06  41856.      1744.0      4.7748    
 UBDSV1 SAVING           STO-SS ON UNIT   1016 AT TIME STEP      2, STRESS PERIOD     60
 UBDSV1 SAVING           STO-SY ON UNIT   1016 AT TIME STEP      2, STRESS PERIOD     60
 UBDSV1 SAVING     FLOW-JA-FACE ON UNIT   1016 AT TIME STEP      2, STRESS PERIOD     60
 UBDSV06 SAVING              RCH IN MODEL TEST_TRANS       PACKAGE TEST_TRANS      CONNECTED TO MODEL TEST_TRANS       PACKAGE RCHA             ON UNIT   1016 AT TIME STEP      2, STRESS PERIOD     60
 UBDSV06 SAVING              CHD IN MODEL TEST_TRANS       PACKAGE TEST_TRANS      CONNECTED TO MODEL TEST_TRANS       PACKAGE CHD              ON UNIT   1016 AT TIME STEP      2, STRESS PERIOD     60

 HEAD WILL BE SAVED ON UNIT 1017 AT END OF TIME STEP    2, STRESS PERIOD   60
 UBDSV1 SAVING           STO-SS ON UNIT   1016 AT TIME STEP      3, STRESS PERIOD     60
 UBDSV1 SAVING           STO-SY ON UNIT   1016 AT TIME STEP      3, STRESS PERIOD     60
 UBDSV1 SAVING     FLOW-JA-FACE ON UNIT   1016 AT TIME STEP      3, STRESS PERIOD     60
 UBDSV06 SAVING              RCH IN MODEL TEST_TRANS       PACKAGE TEST_TRANS      CONNECTED TO MODEL TEST_TRANS       PACKAGE RCHA             ON UNIT   1016 AT TIME STEP      3, STRESS PERIOD     60
 UBDSV06 SAVING              CHD IN MODEL TEST_TRANS       PACKAGE TEST_TRANS      CONNECTED TO MODEL TEST_TRANS       PACKAGE CHD              ON UNIT   1016 AT TIME STEP      3, STRESS PERIOD     60

 HEAD WILL BE SAVED ON UNIT 1017 AT END OF TIME STEP    3, STRESS PERIOD   60
 UBDSV1 SAVING           STO-SS ON UNIT   1016 AT TIME STEP      4, STRESS PERIOD     60
 UBDSV1 SAVING           STO-SY ON UNIT   1016 AT TIME STEP      4, STRESS PERIOD     60
 UBDSV1 SAVING     FLOW-JA-FACE ON UNIT   1016 AT TIME STEP      4, STRESS PERIOD     60
 UBDSV06 SAVING              RCH IN MODEL TEST_TRANS       PACKAGE TEST_TRANS      CONNECTED TO MODEL TEST_TRANS       PACKAGE RCHA             ON UNIT   1016 AT TIME STEP      4, STRESS PERIOD     60
 UBDSV06 SAVING              CHD IN MODEL TEST_TRANS       PACKAGE TEST_TRANS      CONNECTED TO MODEL TEST_TRANS       PACKAGE CHD              ON UNIT   1016 AT TIME STEP      4, STRESS PERIOD     60

 HEAD WILL BE SAVED ON UNIT 1017 AT END OF TIME STEP    4, STRESS PERIOD   60
 UBDSV1 SAVING           STO-SS ON UNIT   1016 AT TIME STEP      5, STRESS PERIOD     60
 UBDSV1 SAVING           STO-SY ON UNIT   1016 AT TIME STEP      5, STRESS PERIOD     60
 UBDSV1 SAVING     FLOW-JA-FACE ON UNIT   1016 AT TIME STEP      5, STRESS PERIOD     60
 UBDSV06 SAVING              RCH IN MODEL TEST_TRANS       PACKAGE TEST_TRANS      CONNECTED TO MODEL TEST_TRANS       PACKAGE RCHA             ON UNIT   1016 AT TIME STEP      5, STRESS PERIOD     60
 UBDSV06 SAVING              CHD IN MODEL TEST_TRANS       PACKAGE TEST_TRANS      CONNECTED TO MODEL TEST_TRANS       PACKAGE CHD              ON UNIT   1016 AT TIME STEP      5, STRESS PERIOD     60

 HEAD WILL BE SAVED ON UNIT 1017 AT END OF TIME STEP    5, STRESS PERIOD   60
 UBDSV1 SAVING           STO-SS ON UNIT   1016 AT TIME STEP      6, STRESS PERIOD     60
 UBDSV1 SAVING           STO-SY ON UNIT   1016 AT TIME STEP      6, STRESS PERIOD     60
 UBDSV1 SAVING     FLOW-JA-FACE ON UNIT   1016 AT TIME STEP      6, STRESS PERIOD     60
 UBDSV06 SAVING              RCH IN MODEL TEST_TRANS       PACKAGE TEST_TRANS      CONNECTED TO MODEL TEST_TRANS       PACKAGE RCHA             ON UNIT   1016 AT TIME STEP      6, STRESS PERIOD     60
 UBDSV06 SAVING              CHD IN MODEL TEST_TRANS       PACKAGE TEST_TRANS      CONNECTED TO MODEL TEST_TRANS       PACKAGE CHD              ON UNIT   1016 AT TIME STEP      6, STRESS PERIOD     60

 HEAD WILL BE SAVED ON UNIT 1017 AT END OF TIME STEP    6, STRESS PERIOD   60
 UBDSV1 SAVING           STO-SS ON UNIT   1016 AT TIME STEP      7, STRESS PERIOD     60
 UBDSV1 SAVING           STO-SY ON UNIT   1016 AT TIME STEP      7, STRESS PERIOD     60
 UBDSV1 SAVING     FLOW-JA-FACE ON UNIT   1016 AT TIME STEP      7, STRESS PERIOD     60
 UBDSV06 SAVING              RCH IN MODEL TEST_TRANS       PACKAGE TEST_TRANS      CONNECTED TO MODEL TEST_TRANS       PACKAGE RCHA             ON UNIT   1016 AT TIME STEP      7, STRESS PERIOD     60
 UBDSV06 SAVING              CHD IN MODEL TEST_TRANS       PACKAGE TEST_TRANS      CONNECTED TO MODEL TEST_TRANS       PACKAGE CHD              ON UNIT   1016 AT TIME STEP      7, STRESS PERIOD     60

 HEAD WILL BE SAVED ON UNIT 1017 AT END OF TIME STEP    7, STRESS PERIOD   60
 UBDSV1 SAVING           STO-SS ON UNIT   1016 AT TIME STEP      8, STRESS PERIOD     60
 UBDSV1 SAVING           STO-SY ON UNIT   1016 AT TIME STEP      8, STRESS PERIOD     60
 UBDSV1 SAVING     FLOW-JA-FACE ON UNIT   1016 AT TIME STEP      8, STRESS PERIOD     60
 UBDSV06 SAVING              RCH IN MODEL TEST_TRANS       PACKAGE TEST_TRANS      CONNECTED TO MODEL TEST_TRANS       PACKAGE RCHA             ON UNIT   1016 AT TIME STEP      8, STRESS PERIOD     60
 UBDSV06 SAVING              CHD IN MODEL TEST_TRANS       PACKAGE TEST_TRANS      CONNECTED TO MODEL TEST_TRANS       PACKAGE CHD              ON UNIT   1016 AT TIME STEP      8, STRESS PERIOD     60

 HEAD WILL BE SAVED ON UNIT 1017 AT END OF TIME STEP    8, STRESS PERIOD   60
 UBDSV1 SAVING           STO-SS ON UNIT   1016 AT TIME STEP      9, STRESS PERIOD     60
 UBDSV1 SAVING           STO-SY ON UNIT   1016 AT TIME STEP      9, STRESS PERIOD     60
 UBDSV1 SAVING     FLOW-JA-FACE ON UNIT   1016 AT TIME STEP      9, STRESS PERIOD     60
 UBDSV06 SAVING              RCH IN MODEL TEST_TRANS       PACKAGE TEST_TRANS      CONNECTED TO MODEL TEST_TRANS       PACKAGE RCHA             ON UNIT   1016 AT TIME STEP      9, STRESS PERIOD     60
 UBDSV06 SAVING              CHD IN MODEL TEST_TRANS       PACKAGE TEST_TRANS      CONNECTED TO MODEL TEST_TRANS       PACKAGE CHD              ON UNIT   1016 AT TIME STEP      9, STRESS PERIOD     60

 HEAD WILL BE SAVED ON UNIT 1017 AT END OF TIME STEP    9, STRESS PERIOD   60
 UBDSV1 SAVING           STO-SS ON UNIT   1016 AT TIME STEP     10, STRESS PERIOD     60
 UBDSV1 SAVING           STO-SY ON UNIT   1016 AT TIME STEP     10, STRESS PERIOD     60
 UBDSV1 SAVING     FLOW-JA-FACE ON UNIT   1016 AT TIME STEP     10, STRESS PERIOD     60
 UBDSV06 SAVING              RCH IN MODEL TEST_TRANS       PACKAGE TEST_TRANS      CONNECTED TO MODEL TEST_TRANS       PACKAGE RCHA             ON UNIT   1016 AT TIME STEP     10, STRESS PERIOD     60
 UBDSV06 SAVING              CHD IN MODEL TEST_TRANS       PACKAGE TEST_TRANS      CONNECTED TO MODEL TEST_TRANS       PACKAGE CHD              ON UNIT   1016 AT TIME STEP     10, STRESS PERIOD     60
1
  HEAD IN LAYER   1 AT END OF TIME STEP  10 IN STRESS PERIOD   60
  ---------------------------------------------------------------------------

            1           2           3           4           5           6           7           8           9          10
           11          12          13          14          15          16          17          18          19          20
           21          22          23          24          25          26          27          28          29          30
 ........................................................................................................................
   1    27.86       27.85       27.84       27.82       27.80       27.78       27.75       27.71       27.67       27.62    
        27.57       27.51       27.44       27.37       27.29       27.20       27.10       27.00       26.88       26.76    
        26.62       26.46       26.30       26.11       25.90       25.66       25.39       25.07       24.66       24.06    
   2    27.86       27.85       27.84       27.82       27.80       27.78       27.75       27.71       27.67       27.62    
        27.57       27.51       27.44       27.37       27.29       27.20       27.10       27.00       26.88       26.76    
        26.62       26.46       26.30       26.11       25.90       25.66       25.39       25.07       24.66       24.06    
   3    27.86       27.85       27.84       27.82       27.80       27.78       27.75       27.71       27.67       27.62    
        27.57       27.51       27.44       27.37       27.29       27.20       27.10       27.00       26.88       26.76    
        26.62       26.46       26.30       26.11       25.90       25.66       25.39       25.07       24.66       24.06    
   4    27.86       27.85       27.84       27.82       27.80       27.78       27.75       27.71       27.67       27.62    
        27.57       27.51       27.44       27.37       27.29       27.20       27.10       27.00       26.88       26.76    
        26.62       26.46       26.30       26.11       25.90       25.66       25.39       25.07       24.66       24.06    
   5    27.86       27.85       27.84       27.82       27.80       27.78       27.75       27.71       27.67       27.62    
        27.57       27.51       27.44       27.37       27.29       27.20       27.10       27.00       26.88       26.76    
        26.62       26.46       26.30       26.11       25.90       25.66       25.39       25.07       24.66       24.06    
   6    27.86       27.85       27.84       27.82       27.80       27.78       27.75       27.71       27.67       27.62    
        27.57       27.51       27.44       27.37       27.29       27.20       27.10       27.00       26.88       26.76    
        26.62       26.46       26.30       26.11       25.90       25.66       25.39       25.07       24.66       24.06    
   7    27.86       27.85       27.84       27.82       27.80       27.78       27.75       27.71       27.67       27.62    
        27.57       27.51       27.44       27.37       27.29       27.20       27.10       27.00       26.88       26.76    
        26.62       26.46       26.30       26.11       25.90       25.66       25.39       25.07       24.66       24.06    
   8    27.86       27.85       27.84       27.82       27.80       27.78       27.75       27.71       27.67       27.62    
        27.57       27.51       27.44       27.37       27.29       27.20       27.10       27.00       26.88       26.76    
        26.62       26.46       26.30       26.11       25.90       25.66       25.39       25.07       24.66       24.06    
   9    27.86       27.85       27.84       27.82       27.80       27.78       27.75       27.71       27.67       27.62    
        27.57       27.51       27.44       27.37       27.29       27.20       27.10       27.00       26.88       26.76    
        26.62       26.46       26.30       26.11       25.90       25.66       25.39       25.07       24.66       24.06    
  10    27.86       27.85       27.84       27.82       27.80       27.78       27.75       27.71       27.67       27.62    
        27.57       27.51       27.44       27.37       27.29       27.20       27.10       27.00       26.88       26.76    
        26.62       26.46       26.30       26.11       25.90       25.66       25.39       25.07       24.66       24.06    
  11    27.86       27.85       27.84       27.82       27.80       27.78       27.75       27.71       27.67       27.62    
        27.57       27.51       27.44       27.37       27.29       27.20       27.10       27.00       26.88       26.76    
        26.62       26.46       26.30       26.11       25.90       25.66       25.39       25.07       24.66       24.06    
  12    27.86       27.85       27.84       27.82       27.80       27.78       27.75       27.71       27.67       27.62    
        27.57       27.51       27.44       27.37       27.29       27.20       27.10       27.00       26.88       26.76    
        26.62       26.46       26.30       26.11       25.90       25.66       25.39       25.07       24.66       24.06    
  13    27.86       27.85       27.84       27.82       27.80       27.78       27.75       27.71       27.67       27.62    
        27.57       27.51       27.44       27.37       27.29       27.20       27.10       27.00       26.88       26.76    
        26.62       26.46       26.30       26.11       25.90       25.66       25.39       25.07       24.66       24.06    
  14    27.86       27.85       27.84       27.82       27.80       27.78       27.75       27.71       27.67       27.62    
        27.57       27.51       27.44       27.37       27.29       27.20       27.10       27.00       26.88       26.76    
        26.62       26.46       26.30       26.11       25.90       25.66       25.39       25.07       24.66       24.06    
  15    27.86       27.85       27.84       27.82       27.80       27.78       27.75       27.71       27.67       27.62    
        27.57       27.51       27.44       27.37       27.29       27.20       27.10       27.00       26.88       26.76    
        26.62       26.46       26.30       26.11       25.90       25.66       25.39       25.07       24.66       24.06    
  16    27.86       27.85       27.84       27.82       27.80       27.78       27.75       27.71       27.67       27.62    
        27.57       27.51       27.44       27.37       27.29       27.20       27.10       27.00       26.88       26.76    
        26.62       26.46       26.30       26.11       25.90       25.66       25.39       25.07       24.66       24.06    
  17    27.86       27.85       27.84       27.82       27.80       27.78       27.75       27.71       27.67       27.62    
        27.57       27.51       27.44       27.37       27.29       27.20       27.10       27.00       26.88       26.76    
        26.62       26.46       26.30       26.11       25.90       25.66       25.39       25.07       24.66       24.06    
  18    27.86       27.85       27.84       27.82       27.80       27.78       27.75       27.71       27.67       27.62    
        27.57       27.51       27.44       27.37       27.29       27.20       27.10       27.00       26.88       26.76    
        26.62       26.46       26.30       26.11       25.90       25.66       25.39       25.07       24.66       24.06    
  19    27.86       27.85       27.84       27.82       27.80       27.78       27.75       27.71       27.67       27.62    
        27.57       27.51       27.44       27.37       27.29       27.20       27.10       27.00       26.88       26.76    
        26.62       26.46       26.30       26.11       25.90       25.66       25.39       25.07       24.66       24.06    
  20    27.86       27.85       27.84       27.82       27.80       27.78       27.75       27.71       27.67       27.62    
        27.57       27.51       27.44       27.37       27.29       27.20       27.10       27.00       26.88       26.76    
        26.62       26.46       26.30       26.11       25.90       25.66       25.39       25.07       24.66       24.06    
  21    27.86       27.85       27.84       27.82       27.80       27.78       27.75       27.71       27.67       27.62    
        27.57       27.51       27.44       27.37       27.29       27.20       27.10       27.00       26.88       26.76    
        26.62       26.46       26.30       26.11       25.90       25.66       25.39       25.07       24.66       24.06    
  22    27.86       27.85       27.84       27.82       27.80       27.78       27.75       27.71       27.67       27.62    
        27.57       27.51       27.44       27.37       27.29       27.20       27.10       27.00       26.88       26.76    
        26.62       26.46       26.30       26.11       25.90       25.66       25.39       25.07       24.66       24.06    
  23    27.86       27.85       27.84       27.82       27.80       27.78       27.75       27.71       27.67       27.62    
        27.57       27.51       27.44       27.37       27.29       27.20       27.10       27.00       26.88       26.76    
        26.62       26.46       26.30       26.11       25.90       25.66       25.39       25.07       24.66       24.06    
  24    27.86       27.85       27.84       27.82       27.80       27.78       27.75       27.71       27.67       27.62    
        27.57       27.51       27.44       27.37       27.29       27.20       27.10       27.00       26.88       26.76    
        26.62       26.46       26.30       26.11       25.90       25.66       25.39       25.07       24.66       24.06    
  25    27.86       27.85       27.84       27.82       27.80       27.78       27.75       27.71       27.67       27.62    
        27.57       27.51       27.44       27.37       27.29       27.20       27.10       27.00       26.88       26.76    
        26.62       26.46       26.30       26.11       25.90       25.66       25.39       25.07       24.66       24.06    
  26    27.86       27.85       27.84       27.82       27.80       27.78       27.75       27.71       27.67       27.62    
        27.57       27.51       27.44       27.37       27.29       27.20       27.10       27.00       26.88       26.76    
        26.62       26.46       26.30       26.11       25.90       25.66       25.39       25.07       24.66       24.06    
  27    27.86       27.85       27.84       27.82       27.80       27.78       27.75       27.71       27.67       27.62    
        27.57       27.51       27.44       27.37       27.29       27.20       27.10       27.00       26.88       26.76    
        26.62       26.46       26.30       26.11       25.90       25.66       25.39       25.07       24.66       24.06    
  28    27.86       27.85       27.84       27.82       27.80       27.78       27.75       27.71       27.67       27.62    
        27.57       27.51       27.44       27.37       27.29       27.20       27.10       27.00       26.88       26.76    
        26.62       26.46       26.30       26.11       25.90       25.66       25.39       25.07       24.66       24.06    
  29    27.86       27.85       27.84       27.82       27.80       27.78       27.75       27.71       27.67       27.62    
        27.57       27.51       27.44       27.37       27.29       27.20       27.10       27.00       26.88       26.76    
        26.62       26.46       26.30       26.11       25.90       25.66       25.39       25.07       24.66       24.06    
  30    27.86       27.85       27.84       27.82       27.80       27.78       27.75       27.71       27.67       27.62    
        27.57       27.51       27.44       27.37       27.29       27.20       27.10       27.00       26.88       26.76    
        26.62       26.46       26.30       26.11       25.90       25.66       25.39       25.07       24.66       24.06    

 HEAD WILL BE SAVED ON UNIT 1017 AT END OF TIME STEP   10, STRESS PERIOD   60


  VOLUME BUDGET FOR ENTIRE MODEL AT END OF TIME STEP   10, STRESS PERIOD  60
  ---------------------------------------------------------------------------------------------------

     CUMULATIVE VOLUME      L**3       RATES FOR THIS TIME STEP      L**3/T          PACKAGE NAME    
     ------------------                 ------------------------                     ----------------

           IN:                                      IN:
           ---                                      ---
              STO-SS =          96.7069                STO-SS =           0.0000     STORAGE         
              STO-SY =       62741.9100                STO-SY =           0.0000     STORAGE         
                 RCH =      291628.8965                   RCH =         238.3565     RCHA            
                 CHD =        6024.4094                   CHD =           0.0000     CHD             

            TOTAL IN =      360491.9229              TOTAL IN =         238.3565

          OUT:                                     OUT:
          ----                                     ----
              STO-SS =          84.0779                STO-SS =       5.7617E-02     STORAGE         
              STO-SY =       54799.9721                STO-SY =          36.3210     STORAGE         
                 RCH =           0.0000                   RCH =           0.0000     RCHA            
                 CHD =      305607.1827                   CHD =         201.9806     CHD             

           TOTAL OUT =      360491.2327             TOTAL OUT =         238.3592

            IN - OUT =           0.6901              IN - OUT =      -2.7039E-03

 PERCENT DISCREPANCY =           0.00     PERCENT DISCREPANCY =          -0.00




         TIME SUMMARY AT END OF TIME STEP   10 IN STRESS PERIOD   60
                    SECONDS     MINUTES      HOURS       DAYS        YEARS
                    -----------------------------------------------------------
   TIME STEP LENGTH 2.59200E+05  4320.0      72.000      3.0000     8.21355E-03
 STRESS PERIOD TIME 2.59200E+06  43200.      720.00      30.000     8.21355E-02
         TOTAL TIME 1.53014E+08 2.55024E+06  42504.      1771.0      4.8487    
