                                   MODFLOW 6
                U.S. GEOLOGICAL SURVEY MODULAR HYDROLOGIC MODEL
                          GROUNDWATER FLOW MODEL (GWF)
                            VERSION 6.0.4 03/13/2019

   MODFLOW 6 compiled Mar 21 2019 15:37:31 with IFORT compiler (ver. 19.0.0)

This software has been approved for release by the U.S. Geological 
Survey (USGS). Although the software has been subjected to rigorous 
review, the USGS reserves the right to update the software as needed 
pursuant to further analysis and review. No warranty, expressed or 
implied, is made by the USGS or the U.S. Government as to the 
functionality of the software and related material nor shall the 
fact of release constitute any such warranty. Furthermore, the 
software is released on condition that neither the USGS nor the U.S. 
Government shall be held liable for any damages resulting from its 
authorized or unauthorized use. Also refer to the USGS Water 
Resources Software User Rights Notice for complete use, copyright, 
and distribution information.


MODFLOW was compiled using uniform precision.
Precision of REAL variables: 15


 OPENED test_trans.dis
 FILE TYPE:DIS6                   UNIT 1005   STATUS:OLD                 
 FORMAT:FORMATTED              ACCESS:SEQUENTIAL          
 ACTION:READ                


 OPENED test_trans.ic
 FILE TYPE:IC6                    UNIT 1006   STATUS:OLD                 
 FORMAT:FORMATTED              ACCESS:SEQUENTIAL          
 ACTION:READ                


 OPENED test_trans.npf
 FILE TYPE:NPF6                   UNIT 1007   STATUS:OLD                 
 FORMAT:FORMATTED              ACCESS:SEQUENTIAL          
 ACTION:READ                


 OPENED test_trans.oc
 FILE TYPE:OC6                    UNIT 1008   STATUS:OLD                 
 FORMAT:FORMATTED              ACCESS:SEQUENTIAL          
 ACTION:READ                


 OPENED test_trans.sto
 FILE TYPE:STO6                   UNIT 1009   STATUS:OLD                 
 FORMAT:FORMATTED              ACCESS:SEQUENTIAL          
 ACTION:READ                


 OPENED test_trans.rcha
 FILE TYPE:RCH6                   UNIT 1010   STATUS:OLD                 
 FORMAT:FORMATTED              ACCESS:SEQUENTIAL          
 ACTION:READ                


 OPENED test_trans.chd
 FILE TYPE:CHD6                   UNIT 1011   STATUS:OLD                 
 FORMAT:FORMATTED              ACCESS:SEQUENTIAL          
 ACTION:READ                


 OPENED test_trans.obs
 FILE TYPE:OBS6                   UNIT 1012   STATUS:OLD                 
 FORMAT:FORMATTED              ACCESS:SEQUENTIAL          
 ACTION:READ                

 NAMEFILE OPTIONS:
    FLOWS WILL BE SAVED TO BUDGET FILE SPECIFIED IN OUTPUT CONTROL

 DIS -- STRUCTURED GRID DISCRETIZATION PACKAGE, VERSION 2 : 3/27/2014 - INPUT READ FROM UNIT 1005


 PROCESSING DISCRETIZATION OPTIONS
 END OF DISCRETIZATION OPTIONS
 MODEL LENGTH UNIT IS UNDEFINED
 PROCESSING DISCRETIZATION DIMENSIONS
    NLAY =       1
    NROW =      30
    NCOL =      30
 END OF DISCRETIZATION DIMENSIONS
 PROCESSING GRIDDATA

                     DELR =   10.00000    

                     DELC =   10.00000    

 TOP ELEVATION OF LAYER 1 =   30.00000    

   MODEL LAYER BOTTOM EL. =   23.00000    

                  IDOMAIN = 1
 END PROCESSING GRIDDATA

 NPF -- NODE PROPERTY FLOW PACKAGE, VERSION 1, 3/30/2015 INPUT READ FROM UNIT 1007


 PROCESSING NPF OPTIONS
    CELL-BY-CELL FLOW INFORMATION WILL BE SAVED TO BINARY FILE WHENEVER ICBCFL IS NOT ZERO.
 END OF NPF OPTIONS

 RCH   -- RCH PACKAGE, VERSION 8, 2/22/2014 INPUT READ FROM UNIT 1010

 PROCESSING RCH OPTIONS
    RECHARGE INPUT WILL BE READ AS ARRAY(S).
 END OF RCH OPTIONS

 CHD   -- CHD PACKAGE, VERSION 8, 2/22/2014 INPUT READ FROM UNIT 1011

 PROCESSING CHD OPTIONS
 END OF CHD OPTIONS

 PROCESSING CHD DIMENSIONS
    MAXBOUND =      30
 END OF CHD DIMENSIONS

 IC -- INITIAL CONDITIONS PACKAGE, VERSION 8, 3/28/2015 INPUT READ FROM UNIT 1006
 PROCESSING GRIDDATA

     INITIAL HEAD =   25.00000    
 END PROCESSING GRIDDATA
 PROCESSING GRIDDATA

                ICELLTYPE = 1

                        K =   8.640000    
 K33 not provided.  Assuming K33 = K.
 K22 not provided.  Assuming K22 = K.
 END PROCESSING GRIDDATA

 STO -- STORAGE PACKAGE, VERSION 1, 5/19/2014 INPUT READ FROM UNIT 1009


 PROCESSING STORAGE OPTIONS
    CELL-BY-CELL FLOW INFORMATION WILL BE SAVED TO BINARY FILE WHENEVER ICBCFL IS NOT ZERO.
 END OF STORAGE OPTIONS
 PROCESSING GRIDDATA

                 ICONVERT = 1

         SPECIFIC STORAGE =  0.1000000E-04

           SPECIFIC YIELD =  0.2000000    
 END PROCESSING GRIDDATA

The observation utility is active for "TEST_TRANS"

Processing observation options:

Text output number of digits of precision set to: 10
The PRINT_INPUT option has been specified.


Observations read from file "test_trans.obs":
Name                                      Type                             Time         Location data
----------------------------------------  -------------------------------  -----------  --------------------------
COL 5                                     Continuous HEAD                  All times    "1 16 6"
COL 10                                    Continuous HEAD                  All times    "1 16 11"
COL 20                                    Continuous HEAD                  All times    "1 16 21"
    BINARY GRID INFORMATION WILL BE WRITTEN TO:
      UNIT NUMBER: 1015
      FILE NAME: C:\Users\emmal\Documents\GitHub\TM_Ludovic_Schorpp\codes_tests\notebooks_essais\workspace\test_trans.dis.grb

 OPENED C:\Users\emmal\Documents\GitHub\TM_Ludovic_Schorpp\codes_tests\notebooks_essais\workspace\test_trans.dis.grb
 FILE TYPE:DATA(BINARY)   UNIT 1015   STATUS:REPLACE             
 FORMAT:UNFORMATTED            ACCESS:STREAM              
 ACTION:READWRITE           

      THE LAST TIME STEP WILL BE PRINTED
      THE LAST TIME STEP WILL BE PRINTED
 PROCESSING OC OPTIONS
    BUDGET INFORMATION WILL BE WRITTEN TO:
      UNIT NUMBER: 1016
      FILE NAME: test_trans.cbb

 OPENED test_trans.cbb
 FILE TYPE:DATA(BINARY)   UNIT 1016   STATUS:REPLACE             
 FORMAT:UNFORMATTED            ACCESS:STREAM              
 ACTION:READWRITE           

    HEAD INFORMATION WILL BE WRITTEN TO:
      UNIT NUMBER: 1017
      FILE NAME: test_trans.hds

 OPENED test_trans.hds
 FILE TYPE:DATA(BINARY)   UNIT 1017   STATUS:REPLACE             
 FORMAT:UNFORMATTED            ACCESS:STREAM              
 ACTION:READWRITE           

 END OF OC OPTIONS

 BEGIN READING OUTPUT CONTROL FOR STRESS PERIOD 1
      ALL TIME STEPS WILL BE SAVED
      ALL TIME STEPS WILL BE SAVED
      THE FIRST TIME STEP WILL BE PRINTED
      THE LAST TIME STEP WILL BE PRINTED
      THE LAST TIME STEP WILL BE PRINTED

 END READING OUTPUT CONTROL FOR STRESS PERIOD 1


 UPDATING STORAGE VALUES
 END UPDATING STORAGE VALUES


 STRESS PERIOD 1 IS STEADY-STATE


                 RECHARGE =  0.2739730E-02
 UBDSV1 SAVING           STO-SS ON UNIT   1016 AT TIME STEP      1, STRESS PERIOD      1
 UBDSV1 SAVING           STO-SY ON UNIT   1016 AT TIME STEP      1, STRESS PERIOD      1
 UBDSV1 SAVING     FLOW-JA-FACE ON UNIT   1016 AT TIME STEP      1, STRESS PERIOD      1
 UBDSV06 SAVING              RCH IN MODEL TEST_TRANS       PACKAGE TEST_TRANS      CONNECTED TO MODEL TEST_TRANS       PACKAGE RCHA             ON UNIT   1016 AT TIME STEP      1, STRESS PERIOD      1
 UBDSV06 SAVING              CHD IN MODEL TEST_TRANS       PACKAGE TEST_TRANS      CONNECTED TO MODEL TEST_TRANS       PACKAGE CHD              ON UNIT   1016 AT TIME STEP      1, STRESS PERIOD      1
1
  HEAD IN LAYER   1 AT END OF TIME STEP   1 IN STRESS PERIOD    1
  ---------------------------------------------------------------------------

            1           2           3           4           5           6           7           8           9          10
           11          12          13          14          15          16          17          18          19          20
           21          22          23          24          25          26          27          28          29          30
 ........................................................................................................................
   1    28.66       28.65       28.64       28.62       28.60       28.57       28.54       28.50       28.45       28.40    
        28.34       28.27       28.20       28.12       28.03       27.94       27.84       27.72       27.60       27.47    
        27.32       27.17       27.00       26.81       26.60       26.38       26.12       25.83       25.50       25.10    
   2    28.66       28.65       28.64       28.62       28.60       28.57       28.54       28.50       28.45       28.40    
        28.34       28.27       28.20       28.12       28.03       27.94       27.84       27.72       27.60       27.47    
        27.32       27.17       27.00       26.81       26.60       26.38       26.12       25.83       25.50       25.10    
   3    28.66       28.65       28.64       28.62       28.60       28.57       28.54       28.50       28.45       28.40    
        28.34       28.27       28.20       28.12       28.03       27.94       27.84       27.72       27.60       27.47    
        27.32       27.17       27.00       26.81       26.60       26.38       26.12       25.83       25.50       25.10    
   4    28.66       28.65       28.64       28.62       28.60       28.57       28.54       28.50       28.45       28.40    
        28.34       28.27       28.20       28.12       28.03       27.94       27.84       27.72       27.60       27.47    
        27.32       27.17       27.00       26.81       26.60       26.38       26.12       25.83       25.50       25.10    
   5    28.66       28.65       28.64       28.62       28.60       28.57       28.54       28.50       28.45       28.40    
        28.34       28.27       28.20       28.12       28.03       27.94       27.84       27.72       27.60       27.47    
        27.32       27.17       27.00       26.81       26.60       26.38       26.12       25.83       25.50       25.10    
   6    28.66       28.65       28.64       28.62       28.60       28.57       28.54       28.50       28.45       28.40    
        28.34       28.27       28.20       28.12       28.03       27.94       27.84       27.72       27.60       27.47    
        27.32       27.17       27.00       26.81       26.60       26.38       26.12       25.83       25.50       25.10    
   7    28.66       28.65       28.64       28.62       28.60       28.57       28.54       28.50       28.45       28.40    
        28.34       28.27       28.20       28.12       28.03       27.94       27.84       27.72       27.60       27.47    
        27.32       27.17       27.00       26.81       26.60       26.38       26.12       25.83       25.50       25.10    
   8    28.66       28.65       28.64       28.62       28.60       28.57       28.54       28.50       28.45       28.40    
        28.34       28.27       28.20       28.12       28.03       27.94       27.84       27.72       27.60       27.47    
        27.32       27.17       27.00       26.81       26.60       26.38       26.12       25.83       25.50       25.10    
   9    28.66       28.65       28.64       28.62       28.60       28.57       28.54       28.50       28.45       28.40    
        28.34       28.27       28.20       28.12       28.03       27.94       27.84       27.72       27.60       27.47    
        27.32       27.17       27.00       26.81       26.60       26.38       26.12       25.83       25.50       25.10    
  10    28.66       28.65       28.64       28.62       28.60       28.57       28.54       28.50       28.45       28.40    
        28.34       28.27       28.20       28.12       28.03       27.94       27.84       27.72       27.60       27.47    
        27.32       27.17       27.00       26.81       26.60       26.38       26.12       25.83       25.50       25.10    
  11    28.66       28.65       28.64       28.62       28.60       28.57       28.54       28.50       28.45       28.40    
        28.34       28.27       28.20       28.12       28.03       27.94       27.84       27.72       27.60       27.47    
        27.32       27.17       27.00       26.81       26.60       26.38       26.12       25.83       25.50       25.10    
  12    28.66       28.65       28.64       28.62       28.60       28.57       28.54       28.50       28.45       28.40    
        28.34       28.27       28.20       28.12       28.03       27.94       27.84       27.72       27.60       27.47    
        27.32       27.17       27.00       26.81       26.60       26.38       26.12       25.83       25.50       25.10    
  13    28.66       28.65       28.64       28.62       28.60       28.57       28.54       28.50       28.45       28.40    
        28.34       28.27       28.20       28.12       28.03       27.94       27.84       27.72       27.60       27.47    
        27.32       27.17       27.00       26.81       26.60       26.38       26.12       25.83       25.50       25.10    
  14    28.66       28.65       28.64       28.62       28.60       28.57       28.54       28.50       28.45       28.40    
        28.34       28.27       28.20       28.12       28.03       27.94       27.84       27.72       27.60       27.47    
        27.32       27.17       27.00       26.81       26.60       26.38       26.12       25.83       25.50       25.10    
  15    28.66       28.65       28.64       28.62       28.60       28.57       28.54       28.50       28.45       28.40    
        28.34       28.27       28.20       28.12       28.03       27.94       27.84       27.72       27.60       27.47    
        27.32       27.17       27.00       26.81       26.60       26.38       26.12       25.83       25.50       25.10    
  16    28.66       28.65       28.64       28.62       28.60       28.57       28.54       28.50       28.45       28.40    
        28.34       28.27       28.20       28.12       28.03       27.94       27.84       27.72       27.60       27.47    
        27.32       27.17       27.00       26.81       26.60       26.38       26.12       25.83       25.50       25.10    
  17    28.66       28.65       28.64       28.62       28.60       28.57       28.54       28.50       28.45       28.40    
        28.34       28.27       28.20       28.12       28.03       27.94       27.84       27.72       27.60       27.47    
        27.32       27.17       27.00       26.81       26.60       26.38       26.12       25.83       25.50       25.10    
  18    28.66       28.65       28.64       28.62       28.60       28.57       28.54       28.50       28.45       28.40    
        28.34       28.27       28.20       28.12       28.03       27.94       27.84       27.72       27.60       27.47    
        27.32       27.17       27.00       26.81       26.60       26.38       26.12       25.83       25.50       25.10    
  19    28.66       28.65       28.64       28.62       28.60       28.57       28.54       28.50       28.45       28.40    
        28.34       28.27       28.20       28.12       28.03       27.94       27.84       27.72       27.60       27.47    
        27.32       27.17       27.00       26.81       26.60       26.38       26.12       25.83       25.50       25.10    
  20    28.66       28.65       28.64       28.62       28.60       28.57       28.54       28.50       28.45       28.40    
        28.34       28.27       28.20       28.12       28.03       27.94       27.84       27.72       27.60       27.47    
        27.32       27.17       27.00       26.81       26.60       26.38       26.12       25.83       25.50       25.10    
  21    28.66       28.65       28.64       28.62       28.60       28.57       28.54       28.50       28.45       28.40    
        28.34       28.27       28.20       28.12       28.03       27.94       27.84       27.72       27.60       27.47    
        27.32       27.17       27.00       26.81       26.60       26.38       26.12       25.83       25.50       25.10    
  22    28.66       28.65       28.64       28.62       28.60       28.57       28.54       28.50       28.45       28.40    
        28.34       28.27       28.20       28.12       28.03       27.94       27.84       27.72       27.60       27.47    
        27.32       27.17       27.00       26.81       26.60       26.38       26.12       25.83       25.50       25.10    
  23    28.66       28.65       28.64       28.62       28.60       28.57       28.54       28.50       28.45       28.40    
        28.34       28.27       28.20       28.12       28.03       27.94       27.84       27.72       27.60       27.47    
        27.32       27.17       27.00       26.81       26.60       26.38       26.12       25.83       25.50       25.10    
  24    28.66       28.65       28.64       28.62       28.60       28.57       28.54       28.50       28.45       28.40    
        28.34       28.27       28.20       28.12       28.03       27.94       27.84       27.72       27.60       27.47    
        27.32       27.17       27.00       26.81       26.60       26.38       26.12       25.83       25.50       25.10    
  25    28.66       28.65       28.64       28.62       28.60       28.57       28.54       28.50       28.45       28.40    
        28.34       28.27       28.20       28.12       28.03       27.94       27.84       27.72       27.60       27.47    
        27.32       27.17       27.00       26.81       26.60       26.38       26.12       25.83       25.50       25.10    
  26    28.66       28.65       28.64       28.62       28.60       28.57       28.54       28.50       28.45       28.40    
        28.34       28.27       28.20       28.12       28.03       27.94       27.84       27.72       27.60       27.47    
        27.32       27.17       27.00       26.81       26.60       26.38       26.12       25.83       25.50       25.10    
  27    28.66       28.65       28.64       28.62       28.60       28.57       28.54       28.50       28.45       28.40    
        28.34       28.27       28.20       28.12       28.03       27.94       27.84       27.72       27.60       27.47    
        27.32       27.17       27.00       26.81       26.60       26.38       26.12       25.83       25.50       25.10    
  28    28.66       28.65       28.64       28.62       28.60       28.57       28.54       28.50       28.45       28.40    
        28.34       28.27       28.20       28.12       28.03       27.94       27.84       27.72       27.60       27.47    
        27.32       27.17       27.00       26.81       26.60       26.38       26.12       25.83       25.50       25.10    
  29    28.66       28.65       28.64       28.62       28.60       28.57       28.54       28.50       28.45       28.40    
        28.34       28.27       28.20       28.12       28.03       27.94       27.84       27.72       27.60       27.47    
        27.32       27.17       27.00       26.81       26.60       26.38       26.12       25.83       25.50       25.10    
  30    28.66       28.65       28.64       28.62       28.60       28.57       28.54       28.50       28.45       28.40    
        28.34       28.27       28.20       28.12       28.03       27.94       27.84       27.72       27.60       27.47    
        27.32       27.17       27.00       26.81       26.60       26.38       26.12       25.83       25.50       25.10    

 HEAD WILL BE SAVED ON UNIT 1017 AT END OF TIME STEP    1, STRESS PERIOD    1


  VOLUME BUDGET FOR ENTIRE MODEL AT END OF TIME STEP    1, STRESS PERIOD   1
  ---------------------------------------------------------------------------------------------------

     CUMULATIVE VOLUME      L**3       RATES FOR THIS TIME STEP      L**3/T          PACKAGE NAME    
     ------------------                 ------------------------                     ----------------

           IN:                                      IN:
           ---                                      ---
              STO-SS =           0.0000                STO-SS =           0.0000     STORAGE         
              STO-SY =           0.0000                STO-SY =           0.0000     STORAGE         
                 RCH =         238.3565                   RCH =         238.3565     RCHA            
                 CHD =           0.0000                   CHD =           0.0000     CHD             

            TOTAL IN =         238.3565              TOTAL IN =         238.3565

          OUT:                                     OUT:
          ----                                     ----
              STO-SS =           0.0000                STO-SS =           0.0000     STORAGE         
              STO-SY =           0.0000                STO-SY =           0.0000     STORAGE         
                 RCH =           0.0000                   RCH =           0.0000     RCHA            
                 CHD =         238.3246                   CHD =         238.3246     CHD             

           TOTAL OUT =         238.3246             TOTAL OUT =         238.3246

            IN - OUT =       3.1891E-02              IN - OUT =       3.1891E-02

 PERCENT DISCREPANCY =           0.01     PERCENT DISCREPANCY =           0.01




         TIME SUMMARY AT END OF TIME STEP    1 IN STRESS PERIOD    1
                    SECONDS     MINUTES      HOURS       DAYS        YEARS
                    -----------------------------------------------------------
   TIME STEP LENGTH  86400.      1440.0      24.000      1.0000     2.73785E-03
 STRESS PERIOD TIME  86400.      1440.0      24.000      1.0000     2.73785E-03
         TOTAL TIME  86400.      1440.0      24.000      1.0000     2.73785E-03

 END OF FILE DETECTED IN OUTPUT CONTROL.
 CURRENT OUTPUT CONTROL SETTINGS WILL BE 
 REPEATED UNTIL THE END OF THE SIMULATION.

 OUTPUT CONTROL FOR STRESS PERIOD 2 IS REPEATED USING SETTINGS FROM A PREVIOUS STRESS PERIOD.


 UPDATING STORAGE VALUES
 END UPDATING STORAGE VALUES


 STRESS PERIOD 2 IS TRANSIENT


                 RECHARGE =  0.3287670E-02
 UBDSV1 SAVING           STO-SS ON UNIT   1016 AT TIME STEP      1, STRESS PERIOD      2
 UBDSV1 SAVING           STO-SY ON UNIT   1016 AT TIME STEP      1, STRESS PERIOD      2
 UBDSV1 SAVING     FLOW-JA-FACE ON UNIT   1016 AT TIME STEP      1, STRESS PERIOD      2
 UBDSV06 SAVING              RCH IN MODEL TEST_TRANS       PACKAGE TEST_TRANS      CONNECTED TO MODEL TEST_TRANS       PACKAGE RCHA             ON UNIT   1016 AT TIME STEP      1, STRESS PERIOD      2
 UBDSV06 SAVING              CHD IN MODEL TEST_TRANS       PACKAGE TEST_TRANS      CONNECTED TO MODEL TEST_TRANS       PACKAGE CHD              ON UNIT   1016 AT TIME STEP      1, STRESS PERIOD      2
1
  HEAD IN LAYER   1 AT END OF TIME STEP   1 IN STRESS PERIOD    2
  ---------------------------------------------------------------------------

            1           2           3           4           5           6           7           8           9          10
           11          12          13          14          15          16          17          18          19          20
           21          22          23          24          25          26          27          28          29          30
 ........................................................................................................................
   1    28.67       28.66       28.65       28.63       28.61       28.58       28.55       28.51       28.46       28.41    
        28.35       28.28       28.21       28.13       28.04       27.95       27.84       27.73       27.61       27.48    
        27.33       27.17       27.00       26.82       26.61       26.39       26.13       25.85       25.52       25.12    
   2    28.67       28.66       28.65       28.63       28.61       28.58       28.55       28.51       28.46       28.41    
        28.35       28.28       28.21       28.13       28.04       27.95       27.84       27.73       27.61       27.48    
        27.33       27.17       27.00       26.82       26.61       26.39       26.13       25.85       25.52       25.12    
   3    28.67       28.66       28.65       28.63       28.61       28.58       28.55       28.51       28.46       28.41    
        28.35       28.28       28.21       28.13       28.04       27.95       27.84       27.73       27.61       27.48    
        27.33       27.17       27.00       26.82       26.61       26.39       26.13       25.85       25.52       25.12    
   4    28.67       28.66       28.65       28.63       28.61       28.58       28.55       28.51       28.46       28.41    
        28.35       28.28       28.21       28.13       28.04       27.95       27.84       27.73       27.61       27.48    
        27.33       27.17       27.00       26.82       26.61       26.39       26.13       25.85       25.52       25.12    
   5    28.67       28.66       28.65       28.63       28.61       28.58       28.55       28.51       28.46       28.41    
        28.35       28.28       28.21       28.13       28.04       27.95       27.84       27.73       27.61       27.48    
        27.33       27.17       27.00       26.82       26.61       26.39       26.13       25.85       25.52       25.12    
   6    28.67       28.66       28.65       28.63       28.61       28.58       28.55       28.51       28.46       28.41    
        28.35       28.28       28.21       28.13       28.04       27.95       27.84       27.73       27.61       27.48    
        27.33       27.17       27.00       26.82       26.61       26.39       26.13       25.85       25.52       25.12    
   7    28.67       28.66       28.65       28.63       28.61       28.58       28.55       28.51       28.46       28.41    
        28.35       28.28       28.21       28.13       28.04       27.95       27.84       27.73       27.61       27.48    
        27.33       27.17       27.00       26.82       26.61       26.39       26.13       25.85       25.52       25.12    
   8    28.67       28.66       28.65       28.63       28.61       28.58       28.55       28.51       28.46       28.41    
        28.35       28.28       28.21       28.13       28.04       27.95       27.84       27.73       27.61       27.48    
        27.33       27.17       27.00       26.82       26.61       26.39       26.13       25.85       25.52       25.12    
   9    28.67       28.66       28.65       28.63       28.61       28.58       28.55       28.51       28.46       28.41    
        28.35       28.28       28.21       28.13       28.04       27.95       27.84       27.73       27.61       27.48    
        27.33       27.17       27.00       26.82       26.61       26.39       26.13       25.85       25.52       25.12    
  10    28.67       28.66       28.65       28.63       28.61       28.58       28.55       28.51       28.46       28.41    
        28.35       28.28       28.21       28.13       28.04       27.95       27.84       27.73       27.61       27.48    
        27.33       27.17       27.00       26.82       26.61       26.39       26.13       25.85       25.52       25.12    
  11    28.67       28.66       28.65       28.63       28.61       28.58       28.55       28.51       28.46       28.41    
        28.35       28.28       28.21       28.13       28.04       27.95       27.84       27.73       27.61       27.48    
        27.33       27.17       27.00       26.82       26.61       26.39       26.13       25.85       25.52       25.12    
  12    28.67       28.66       28.65       28.63       28.61       28.58       28.55       28.51       28.46       28.41    
        28.35       28.28       28.21       28.13       28.04       27.95       27.84       27.73       27.61       27.48    
        27.33       27.17       27.00       26.82       26.61       26.39       26.13       25.85       25.52       25.12    
  13    28.67       28.66       28.65       28.63       28.61       28.58       28.55       28.51       28.46       28.41    
        28.35       28.28       28.21       28.13       28.04       27.95       27.84       27.73       27.61       27.48    
        27.33       27.17       27.00       26.82       26.61       26.39       26.13       25.85       25.52       25.12    
  14    28.67       28.66       28.65       28.63       28.61       28.58       28.55       28.51       28.46       28.41    
        28.35       28.28       28.21       28.13       28.04       27.95       27.84       27.73       27.61       27.48    
        27.33       27.17       27.00       26.82       26.61       26.39       26.13       25.85       25.52       25.12    
  15    28.67       28.66       28.65       28.63       28.61       28.58       28.55       28.51       28.46       28.41    
        28.35       28.28       28.21       28.13       28.04       27.95       27.84       27.73       27.61       27.48    
        27.33       27.17       27.00       26.82       26.61       26.39       26.13       25.85       25.52       25.12    
  16    28.67       28.66       28.65       28.63       28.61       28.58       28.55       28.51       28.46       28.41    
        28.35       28.28       28.21       28.13       28.04       27.95       27.84       27.73       27.61       27.48    
        27.33       27.17       27.00       26.82       26.61       26.39       26.13       25.85       25.52       25.12    
  17    28.67       28.66       28.65       28.63       28.61       28.58       28.55       28.51       28.46       28.41    
        28.35       28.28       28.21       28.13       28.04       27.95       27.84       27.73       27.61       27.48    
        27.33       27.17       27.00       26.82       26.61       26.39       26.13       25.85       25.52       25.12    
  18    28.67       28.66       28.65       28.63       28.61       28.58       28.55       28.51       28.46       28.41    
        28.35       28.28       28.21       28.13       28.04       27.95       27.84       27.73       27.61       27.48    
        27.33       27.17       27.00       26.82       26.61       26.39       26.13       25.85       25.52       25.12    
  19    28.67       28.66       28.65       28.63       28.61       28.58       28.55       28.51       28.46       28.41    
        28.35       28.28       28.21       28.13       28.04       27.95       27.84       27.73       27.61       27.48    
        27.33       27.17       27.00       26.82       26.61       26.39       26.13       25.85       25.52       25.12    
  20    28.67       28.66       28.65       28.63       28.61       28.58       28.55       28.51       28.46       28.41    
        28.35       28.28       28.21       28.13       28.04       27.95       27.84       27.73       27.61       27.48    
        27.33       27.17       27.00       26.82       26.61       26.39       26.13       25.85       25.52       25.12    
  21    28.67       28.66       28.65       28.63       28.61       28.58       28.55       28.51       28.46       28.41    
        28.35       28.28       28.21       28.13       28.04       27.95       27.84       27.73       27.61       27.48    
        27.33       27.17       27.00       26.82       26.61       26.39       26.13       25.85       25.52       25.12    
  22    28.67       28.66       28.65       28.63       28.61       28.58       28.55       28.51       28.46       28.41    
        28.35       28.28       28.21       28.13       28.04       27.95       27.84       27.73       27.61       27.48    
        27.33       27.17       27.00       26.82       26.61       26.39       26.13       25.85       25.52       25.12    
  23    28.67       28.66       28.65       28.63       28.61       28.58       28.55       28.51       28.46       28.41    
        28.35       28.28       28.21       28.13       28.04       27.95       27.84       27.73       27.61       27.48    
        27.33       27.17       27.00       26.82       26.61       26.39       26.13       25.85       25.52       25.12    
  24    28.67       28.66       28.65       28.63       28.61       28.58       28.55       28.51       28.46       28.41    
        28.35       28.28       28.21       28.13       28.04       27.95       27.84       27.73       27.61       27.48    
        27.33       27.17       27.00       26.82       26.61       26.39       26.13       25.85       25.52       25.12    
  25    28.67       28.66       28.65       28.63       28.61       28.58       28.55       28.51       28.46       28.41    
        28.35       28.28       28.21       28.13       28.04       27.95       27.84       27.73       27.61       27.48    
        27.33       27.17       27.00       26.82       26.61       26.39       26.13       25.85       25.52       25.12    
  26    28.67       28.66       28.65       28.63       28.61       28.58       28.55       28.51       28.46       28.41    
        28.35       28.28       28.21       28.13       28.04       27.95       27.84       27.73       27.61       27.48    
        27.33       27.17       27.00       26.82       26.61       26.39       26.13       25.85       25.52       25.12    
  27    28.67       28.66       28.65       28.63       28.61       28.58       28.55       28.51       28.46       28.41    
        28.35       28.28       28.21       28.13       28.04       27.95       27.84       27.73       27.61       27.48    
        27.33       27.17       27.00       26.82       26.61       26.39       26.13       25.85       25.52       25.12    
  28    28.67       28.66       28.65       28.63       28.61       28.58       28.55       28.51       28.46       28.41    
        28.35       28.28       28.21       28.13       28.04       27.95       27.84       27.73       27.61       27.48    
        27.33       27.17       27.00       26.82       26.61       26.39       26.13       25.85       25.52       25.12    
  29    28.67       28.66       28.65       28.63       28.61       28.58       28.55       28.51       28.46       28.41    
        28.35       28.28       28.21       28.13       28.04       27.95       27.84       27.73       27.61       27.48    
        27.33       27.17       27.00       26.82       26.61       26.39       26.13       25.85       25.52       25.12    
  30    28.67       28.66       28.65       28.63       28.61       28.58       28.55       28.51       28.46       28.41    
        28.35       28.28       28.21       28.13       28.04       27.95       27.84       27.73       27.61       27.48    
        27.33       27.17       27.00       26.82       26.61       26.39       26.13       25.85       25.52       25.12    

 HEAD WILL BE SAVED ON UNIT 1017 AT END OF TIME STEP    1, STRESS PERIOD    2



         TIME SUMMARY AT END OF TIME STEP    1 IN STRESS PERIOD    2
                    SECONDS     MINUTES      HOURS       DAYS        YEARS
                    -----------------------------------------------------------
   TIME STEP LENGTH 2.59200E+05  4320.0      72.000      3.0000     8.21355E-03
 STRESS PERIOD TIME 2.59200E+05  4320.0      72.000      3.0000     8.21355E-03
         TOTAL TIME 3.45600E+05  5760.0      96.000      4.0000     1.09514E-02
 UBDSV1 SAVING           STO-SS ON UNIT   1016 AT TIME STEP      2, STRESS PERIOD      2
 UBDSV1 SAVING           STO-SY ON UNIT   1016 AT TIME STEP      2, STRESS PERIOD      2
 UBDSV1 SAVING     FLOW-JA-FACE ON UNIT   1016 AT TIME STEP      2, STRESS PERIOD      2
 UBDSV06 SAVING              RCH IN MODEL TEST_TRANS       PACKAGE TEST_TRANS      CONNECTED TO MODEL TEST_TRANS       PACKAGE RCHA             ON UNIT   1016 AT TIME STEP      2, STRESS PERIOD      2
 UBDSV06 SAVING              CHD IN MODEL TEST_TRANS       PACKAGE TEST_TRANS      CONNECTED TO MODEL TEST_TRANS       PACKAGE CHD              ON UNIT   1016 AT TIME STEP      2, STRESS PERIOD      2

 HEAD WILL BE SAVED ON UNIT 1017 AT END OF TIME STEP    2, STRESS PERIOD    2
 UBDSV1 SAVING           STO-SS ON UNIT   1016 AT TIME STEP      3, STRESS PERIOD      2
 UBDSV1 SAVING           STO-SY ON UNIT   1016 AT TIME STEP      3, STRESS PERIOD      2
 UBDSV1 SAVING     FLOW-JA-FACE ON UNIT   1016 AT TIME STEP      3, STRESS PERIOD      2
 UBDSV06 SAVING              RCH IN MODEL TEST_TRANS       PACKAGE TEST_TRANS      CONNECTED TO MODEL TEST_TRANS       PACKAGE RCHA             ON UNIT   1016 AT TIME STEP      3, STRESS PERIOD      2
 UBDSV06 SAVING              CHD IN MODEL TEST_TRANS       PACKAGE TEST_TRANS      CONNECTED TO MODEL TEST_TRANS       PACKAGE CHD              ON UNIT   1016 AT TIME STEP      3, STRESS PERIOD      2

 HEAD WILL BE SAVED ON UNIT 1017 AT END OF TIME STEP    3, STRESS PERIOD    2
 UBDSV1 SAVING           STO-SS ON UNIT   1016 AT TIME STEP      4, STRESS PERIOD      2
 UBDSV1 SAVING           STO-SY ON UNIT   1016 AT TIME STEP      4, STRESS PERIOD      2
 UBDSV1 SAVING     FLOW-JA-FACE ON UNIT   1016 AT TIME STEP      4, STRESS PERIOD      2
 UBDSV06 SAVING              RCH IN MODEL TEST_TRANS       PACKAGE TEST_TRANS      CONNECTED TO MODEL TEST_TRANS       PACKAGE RCHA             ON UNIT   1016 AT TIME STEP      4, STRESS PERIOD      2
 UBDSV06 SAVING              CHD IN MODEL TEST_TRANS       PACKAGE TEST_TRANS      CONNECTED TO MODEL TEST_TRANS       PACKAGE CHD              ON UNIT   1016 AT TIME STEP      4, STRESS PERIOD      2

 HEAD WILL BE SAVED ON UNIT 1017 AT END OF TIME STEP    4, STRESS PERIOD    2
 UBDSV1 SAVING           STO-SS ON UNIT   1016 AT TIME STEP      5, STRESS PERIOD      2
 UBDSV1 SAVING           STO-SY ON UNIT   1016 AT TIME STEP      5, STRESS PERIOD      2
 UBDSV1 SAVING     FLOW-JA-FACE ON UNIT   1016 AT TIME STEP      5, STRESS PERIOD      2
 UBDSV06 SAVING              RCH IN MODEL TEST_TRANS       PACKAGE TEST_TRANS      CONNECTED TO MODEL TEST_TRANS       PACKAGE RCHA             ON UNIT   1016 AT TIME STEP      5, STRESS PERIOD      2
 UBDSV06 SAVING              CHD IN MODEL TEST_TRANS       PACKAGE TEST_TRANS      CONNECTED TO MODEL TEST_TRANS       PACKAGE CHD              ON UNIT   1016 AT TIME STEP      5, STRESS PERIOD      2

 HEAD WILL BE SAVED ON UNIT 1017 AT END OF TIME STEP    5, STRESS PERIOD    2
 UBDSV1 SAVING           STO-SS ON UNIT   1016 AT TIME STEP      6, STRESS PERIOD      2
 UBDSV1 SAVING           STO-SY ON UNIT   1016 AT TIME STEP      6, STRESS PERIOD      2
 UBDSV1 SAVING     FLOW-JA-FACE ON UNIT   1016 AT TIME STEP      6, STRESS PERIOD      2
 UBDSV06 SAVING              RCH IN MODEL TEST_TRANS       PACKAGE TEST_TRANS      CONNECTED TO MODEL TEST_TRANS       PACKAGE RCHA             ON UNIT   1016 AT TIME STEP      6, STRESS PERIOD      2
 UBDSV06 SAVING              CHD IN MODEL TEST_TRANS       PACKAGE TEST_TRANS      CONNECTED TO MODEL TEST_TRANS       PACKAGE CHD              ON UNIT   1016 AT TIME STEP      6, STRESS PERIOD      2

 HEAD WILL BE SAVED ON UNIT 1017 AT END OF TIME STEP    6, STRESS PERIOD    2
 UBDSV1 SAVING           STO-SS ON UNIT   1016 AT TIME STEP      7, STRESS PERIOD      2
 UBDSV1 SAVING           STO-SY ON UNIT   1016 AT TIME STEP      7, STRESS PERIOD      2
 UBDSV1 SAVING     FLOW-JA-FACE ON UNIT   1016 AT TIME STEP      7, STRESS PERIOD      2
 UBDSV06 SAVING              RCH IN MODEL TEST_TRANS       PACKAGE TEST_TRANS      CONNECTED TO MODEL TEST_TRANS       PACKAGE RCHA             ON UNIT   1016 AT TIME STEP      7, STRESS PERIOD      2
 UBDSV06 SAVING              CHD IN MODEL TEST_TRANS       PACKAGE TEST_TRANS      CONNECTED TO MODEL TEST_TRANS       PACKAGE CHD              ON UNIT   1016 AT TIME STEP      7, STRESS PERIOD      2

 HEAD WILL BE SAVED ON UNIT 1017 AT END OF TIME STEP    7, STRESS PERIOD    2
 UBDSV1 SAVING           STO-SS ON UNIT   1016 AT TIME STEP      8, STRESS PERIOD      2
 UBDSV1 SAVING           STO-SY ON UNIT   1016 AT TIME STEP      8, STRESS PERIOD      2
 UBDSV1 SAVING     FLOW-JA-FACE ON UNIT   1016 AT TIME STEP      8, STRESS PERIOD      2
 UBDSV06 SAVING              RCH IN MODEL TEST_TRANS       PACKAGE TEST_TRANS      CONNECTED TO MODEL TEST_TRANS       PACKAGE RCHA             ON UNIT   1016 AT TIME STEP      8, STRESS PERIOD      2
 UBDSV06 SAVING              CHD IN MODEL TEST_TRANS       PACKAGE TEST_TRANS      CONNECTED TO MODEL TEST_TRANS       PACKAGE CHD              ON UNIT   1016 AT TIME STEP      8, STRESS PERIOD      2

 HEAD WILL BE SAVED ON UNIT 1017 AT END OF TIME STEP    8, STRESS PERIOD    2
 UBDSV1 SAVING           STO-SS ON UNIT   1016 AT TIME STEP      9, STRESS PERIOD      2
 UBDSV1 SAVING           STO-SY ON UNIT   1016 AT TIME STEP      9, STRESS PERIOD      2
 UBDSV1 SAVING     FLOW-JA-FACE ON UNIT   1016 AT TIME STEP      9, STRESS PERIOD      2
 UBDSV06 SAVING              RCH IN MODEL TEST_TRANS       PACKAGE TEST_TRANS      CONNECTED TO MODEL TEST_TRANS       PACKAGE RCHA             ON UNIT   1016 AT TIME STEP      9, STRESS PERIOD      2
 UBDSV06 SAVING              CHD IN MODEL TEST_TRANS       PACKAGE TEST_TRANS      CONNECTED TO MODEL TEST_TRANS       PACKAGE CHD              ON UNIT   1016 AT TIME STEP      9, STRESS PERIOD      2

 HEAD WILL BE SAVED ON UNIT 1017 AT END OF TIME STEP    9, STRESS PERIOD    2
 UBDSV1 SAVING           STO-SS ON UNIT   1016 AT TIME STEP     10, STRESS PERIOD      2
 UBDSV1 SAVING           STO-SY ON UNIT   1016 AT TIME STEP     10, STRESS PERIOD      2
 UBDSV1 SAVING     FLOW-JA-FACE ON UNIT   1016 AT TIME STEP     10, STRESS PERIOD      2
 UBDSV06 SAVING              RCH IN MODEL TEST_TRANS       PACKAGE TEST_TRANS      CONNECTED TO MODEL TEST_TRANS       PACKAGE RCHA             ON UNIT   1016 AT TIME STEP     10, STRESS PERIOD      2
 UBDSV06 SAVING              CHD IN MODEL TEST_TRANS       PACKAGE TEST_TRANS      CONNECTED TO MODEL TEST_TRANS       PACKAGE CHD              ON UNIT   1016 AT TIME STEP     10, STRESS PERIOD      2
1
  HEAD IN LAYER   1 AT END OF TIME STEP  10 IN STRESS PERIOD    2
  ---------------------------------------------------------------------------

            1           2           3           4           5           6           7           8           9          10
           11          12          13          14          15          16          17          18          19          20
           21          22          23          24          25          26          27          28          29          30
 ........................................................................................................................
   1    28.74       28.73       28.72       28.70       28.68       28.65       28.62       28.58       28.53       28.48    
        28.42       28.35       28.28       28.20       28.11       28.02       27.91       27.80       27.67       27.54    
        27.40       27.24       27.06       26.88       26.67       26.44       26.18       25.88       25.54       25.12    
   2    28.74       28.73       28.72       28.70       28.68       28.65       28.62       28.58       28.53       28.48    
        28.42       28.35       28.28       28.20       28.11       28.02       27.91       27.80       27.67       27.54    
        27.40       27.24       27.06       26.88       26.67       26.44       26.18       25.88       25.54       25.12    
   3    28.74       28.73       28.72       28.70       28.68       28.65       28.62       28.58       28.53       28.48    
        28.42       28.35       28.28       28.20       28.11       28.02       27.91       27.80       27.67       27.54    
        27.40       27.24       27.06       26.88       26.67       26.44       26.18       25.88       25.54       25.12    
   4    28.74       28.73       28.72       28.70       28.68       28.65       28.62       28.58       28.53       28.48    
        28.42       28.35       28.28       28.20       28.11       28.02       27.91       27.80       27.67       27.54    
        27.40       27.24       27.06       26.88       26.67       26.44       26.18       25.88       25.54       25.12    
   5    28.74       28.73       28.72       28.70       28.68       28.65       28.62       28.58       28.53       28.48    
        28.42       28.35       28.28       28.20       28.11       28.02       27.91       27.80       27.67       27.54    
        27.40       27.24       27.06       26.88       26.67       26.44       26.18       25.88       25.54       25.12    
   6    28.74       28.73       28.72       28.70       28.68       28.65       28.62       28.58       28.53       28.48    
        28.42       28.35       28.28       28.20       28.11       28.02       27.91       27.80       27.67       27.54    
        27.40       27.24       27.06       26.88       26.67       26.44       26.18       25.88       25.54       25.12    
   7    28.74       28.73       28.72       28.70       28.68       28.65       28.62       28.58       28.53       28.48    
        28.42       28.35       28.28       28.20       28.11       28.02       27.91       27.80       27.67       27.54    
        27.40       27.24       27.06       26.88       26.67       26.44       26.18       25.88       25.54       25.12    
   8    28.74       28.73       28.72       28.70       28.68       28.65       28.62       28.58       28.53       28.48    
        28.42       28.35       28.28       28.20       28.11       28.02       27.91       27.80       27.67       27.54    
        27.40       27.24       27.06       26.88       26.67       26.44       26.18       25.88       25.54       25.12    
   9    28.74       28.73       28.72       28.70       28.68       28.65       28.62       28.58       28.53       28.48    
        28.42       28.35       28.28       28.20       28.11       28.02       27.91       27.80       27.67       27.54    
        27.40       27.24       27.06       26.88       26.67       26.44       26.18       25.88       25.54       25.12    
  10    28.74       28.73       28.72       28.70       28.68       28.65       28.62       28.58       28.53       28.48    
        28.42       28.35       28.28       28.20       28.11       28.02       27.91       27.80       27.67       27.54    
        27.40       27.24       27.06       26.88       26.67       26.44       26.18       25.88       25.54       25.12    
  11    28.74       28.73       28.72       28.70       28.68       28.65       28.62       28.58       28.53       28.48    
        28.42       28.35       28.28       28.20       28.11       28.02       27.91       27.80       27.67       27.54    
        27.40       27.24       27.06       26.88       26.67       26.44       26.18       25.88       25.54       25.12    
  12    28.74       28.73       28.72       28.70       28.68       28.65       28.62       28.58       28.53       28.48    
        28.42       28.35       28.28       28.20       28.11       28.02       27.91       27.80       27.67       27.54    
        27.40       27.24       27.06       26.88       26.67       26.44       26.18       25.88       25.54       25.12    
  13    28.74       28.73       28.72       28.70       28.68       28.65       28.62       28.58       28.53       28.48    
        28.42       28.35       28.28       28.20       28.11       28.02       27.91       27.80       27.67       27.54    
        27.40       27.24       27.06       26.88       26.67       26.44       26.18       25.88       25.54       25.12    
  14    28.74       28.73       28.72       28.70       28.68       28.65       28.62       28.58       28.53       28.48    
        28.42       28.35       28.28       28.20       28.11       28.02       27.91       27.80       27.67       27.54    
        27.40       27.24       27.06       26.88       26.67       26.44       26.18       25.88       25.54       25.12    
  15    28.74       28.73       28.72       28.70       28.68       28.65       28.62       28.58       28.53       28.48    
        28.42       28.35       28.28       28.20       28.11       28.02       27.91       27.80       27.67       27.54    
        27.40       27.24       27.06       26.88       26.67       26.44       26.18       25.88       25.54       25.12    
  16    28.74       28.73       28.72       28.70       28.68       28.65       28.62       28.58       28.53       28.48    
        28.42       28.35       28.28       28.20       28.11       28.02       27.91       27.80       27.67       27.54    
        27.40       27.24       27.06       26.88       26.67       26.44       26.18       25.88       25.54       25.12    
  17    28.74       28.73       28.72       28.70       28.68       28.65       28.62       28.58       28.53       28.48    
        28.42       28.35       28.28       28.20       28.11       28.02       27.91       27.80       27.67       27.54    
        27.40       27.24       27.06       26.88       26.67       26.44       26.18       25.88       25.54       25.12    
  18    28.74       28.73       28.72       28.70       28.68       28.65       28.62       28.58       28.53       28.48    
        28.42       28.35       28.28       28.20       28.11       28.02       27.91       27.80       27.67       27.54    
        27.40       27.24       27.06       26.88       26.67       26.44       26.18       25.88       25.54       25.12    
  19    28.74       28.73       28.72       28.70       28.68       28.65       28.62       28.58       28.53       28.48    
        28.42       28.35       28.28       28.20       28.11       28.02       27.91       27.80       27.67       27.54    
        27.40       27.24       27.06       26.88       26.67       26.44       26.18       25.88       25.54       25.12    
  20    28.74       28.73       28.72       28.70       28.68       28.65       28.62       28.58       28.53       28.48    
        28.42       28.35       28.28       28.20       28.11       28.02       27.91       27.80       27.67       27.54    
        27.40       27.24       27.06       26.88       26.67       26.44       26.18       25.88       25.54       25.12    
  21    28.74       28.73       28.72       28.70       28.68       28.65       28.62       28.58       28.53       28.48    
        28.42       28.35       28.28       28.20       28.11       28.02       27.91       27.80       27.67       27.54    
        27.40       27.24       27.06       26.88       26.67       26.44       26.18       25.88       25.54       25.12    
  22    28.74       28.73       28.72       28.70       28.68       28.65       28.62       28.58       28.53       28.48    
        28.42       28.35       28.28       28.20       28.11       28.02       27.91       27.80       27.67       27.54    
        27.40       27.24       27.06       26.88       26.67       26.44       26.18       25.88       25.54       25.12    
  23    28.74       28.73       28.72       28.70       28.68       28.65       28.62       28.58       28.53       28.48    
        28.42       28.35       28.28       28.20       28.11       28.02       27.91       27.80       27.67       27.54    
        27.40       27.24       27.06       26.88       26.67       26.44       26.18       25.88       25.54       25.12    
  24    28.74       28.73       28.72       28.70       28.68       28.65       28.62       28.58       28.53       28.48    
        28.42       28.35       28.28       28.20       28.11       28.02       27.91       27.80       27.67       27.54    
        27.40       27.24       27.06       26.88       26.67       26.44       26.18       25.88       25.54       25.12    
  25    28.74       28.73       28.72       28.70       28.68       28.65       28.62       28.58       28.53       28.48    
        28.42       28.35       28.28       28.20       28.11       28.02       27.91       27.80       27.67       27.54    
        27.40       27.24       27.06       26.88       26.67       26.44       26.18       25.88       25.54       25.12    
  26    28.74       28.73       28.72       28.70       28.68       28.65       28.62       28.58       28.53       28.48    
        28.42       28.35       28.28       28.20       28.11       28.02       27.91       27.80       27.67       27.54    
        27.40       27.24       27.06       26.88       26.67       26.44       26.18       25.88       25.54       25.12    
  27    28.74       28.73       28.72       28.70       28.68       28.65       28.62       28.58       28.53       28.48    
        28.42       28.35       28.28       28.20       28.11       28.02       27.91       27.80       27.67       27.54    
        27.40       27.24       27.06       26.88       26.67       26.44       26.18       25.88       25.54       25.12    
  28    28.74       28.73       28.72       28.70       28.68       28.65       28.62       28.58       28.53       28.48    
        28.42       28.35       28.28       28.20       28.11       28.02       27.91       27.80       27.67       27.54    
        27.40       27.24       27.06       26.88       26.67       26.44       26.18       25.88       25.54       25.12    
  29    28.74       28.73       28.72       28.70       28.68       28.65       28.62       28.58       28.53       28.48    
        28.42       28.35       28.28       28.20       28.11       28.02       27.91       27.80       27.67       27.54    
        27.40       27.24       27.06       26.88       26.67       26.44       26.18       25.88       25.54       25.12    
  30    28.74       28.73       28.72       28.70       28.68       28.65       28.62       28.58       28.53       28.48    
        28.42       28.35       28.28       28.20       28.11       28.02       27.91       27.80       27.67       27.54    
        27.40       27.24       27.06       26.88       26.67       26.44       26.18       25.88       25.54       25.12    

 HEAD WILL BE SAVED ON UNIT 1017 AT END OF TIME STEP   10, STRESS PERIOD    2


  VOLUME BUDGET FOR ENTIRE MODEL AT END OF TIME STEP   10, STRESS PERIOD   2
  ---------------------------------------------------------------------------------------------------

     CUMULATIVE VOLUME      L**3       RATES FOR THIS TIME STEP      L**3/T          PACKAGE NAME    
     ------------------                 ------------------------                     ----------------

           IN:                                      IN:
           ---                                      ---
              STO-SS =           0.0000                STO-SS =           0.0000     STORAGE         
              STO-SY =           0.0000                STO-SY =           0.0000     STORAGE         
                 RCH =        8819.1752                   RCH =         286.0273     RCHA            
                 CHD =           0.0000                   CHD =           0.0000     CHD             

            TOTAL IN =        8819.1752              TOTAL IN =         286.0273

          OUT:                                     OUT:
          ----                                     ----
              STO-SS =           2.0568                STO-SS =       6.0001E-02     STORAGE         
              STO-SY =        1256.3138                STO-SY =          36.2983     STORAGE         
                 RCH =           0.0000                   RCH =           0.0000     RCHA            
                 CHD =        7560.9275                   CHD =         249.6737     CHD             

           TOTAL OUT =        8819.2980             TOTAL OUT =         286.0321

            IN - OUT =          -0.1228              IN - OUT =      -4.7746E-03

 PERCENT DISCREPANCY =          -0.00     PERCENT DISCREPANCY =          -0.00




         TIME SUMMARY AT END OF TIME STEP   10 IN STRESS PERIOD    2
                    SECONDS     MINUTES      HOURS       DAYS        YEARS
                    -----------------------------------------------------------
   TIME STEP LENGTH 2.59200E+05  4320.0      72.000      3.0000     8.21355E-03
 STRESS PERIOD TIME 2.59200E+06  43200.      720.00      30.000     8.21355E-02
         TOTAL TIME 2.67840E+06  44640.      744.00      31.000     8.48734E-02

 OUTPUT CONTROL FOR STRESS PERIOD 3 IS REPEATED USING SETTINGS FROM A PREVIOUS STRESS PERIOD.


 STRESS PERIOD 3 IS TRANSIENT


                 RECHARGE =  0.2465750E-02
 UBDSV1 SAVING           STO-SS ON UNIT   1016 AT TIME STEP      1, STRESS PERIOD      3
 UBDSV1 SAVING           STO-SY ON UNIT   1016 AT TIME STEP      1, STRESS PERIOD      3
 UBDSV1 SAVING     FLOW-JA-FACE ON UNIT   1016 AT TIME STEP      1, STRESS PERIOD      3
 UBDSV06 SAVING              RCH IN MODEL TEST_TRANS       PACKAGE TEST_TRANS      CONNECTED TO MODEL TEST_TRANS       PACKAGE RCHA             ON UNIT   1016 AT TIME STEP      1, STRESS PERIOD      3
 UBDSV06 SAVING              CHD IN MODEL TEST_TRANS       PACKAGE TEST_TRANS      CONNECTED TO MODEL TEST_TRANS       PACKAGE CHD              ON UNIT   1016 AT TIME STEP      1, STRESS PERIOD      3
1
  HEAD IN LAYER   1 AT END OF TIME STEP   1 IN STRESS PERIOD    3
  ---------------------------------------------------------------------------

            1           2           3           4           5           6           7           8           9          10
           11          12          13          14          15          16          17          18          19          20
           21          22          23          24          25          26          27          28          29          30
 ........................................................................................................................
   1    28.73       28.73       28.71       28.70       28.68       28.65       28.61       28.57       28.53       28.47    
        28.41       28.35       28.27       28.19       28.11       28.01       27.91       27.79       27.67       27.54    
        27.39       27.23       27.06       26.87       26.67       26.44       26.19       25.91       25.59       25.23    
   2    28.73       28.73       28.71       28.70       28.68       28.65       28.61       28.57       28.53       28.47    
        28.41       28.35       28.27       28.19       28.11       28.01       27.91       27.79       27.67       27.54    
        27.39       27.23       27.06       26.87       26.67       26.44       26.19       25.91       25.59       25.23    
   3    28.73       28.73       28.71       28.70       28.68       28.65       28.61       28.57       28.53       28.47    
        28.41       28.35       28.27       28.19       28.11       28.01       27.91       27.79       27.67       27.54    
        27.39       27.23       27.06       26.87       26.67       26.44       26.19       25.91       25.59       25.23    
   4    28.73       28.73       28.71       28.70       28.68       28.65       28.61       28.57       28.53       28.47    
        28.41       28.35       28.27       28.19       28.11       28.01       27.91       27.79       27.67       27.54    
        27.39       27.23       27.06       26.87       26.67       26.44       26.19       25.91       25.59       25.23    
   5    28.73       28.73       28.71       28.70       28.68       28.65       28.61       28.57       28.53       28.47    
        28.41       28.35       28.27       28.19       28.11       28.01       27.91       27.79       27.67       27.54    
        27.39       27.23       27.06       26.87       26.67       26.44       26.19       25.91       25.59       25.23    
   6    28.73       28.73       28.71       28.70       28.68       28.65       28.61       28.57       28.53       28.47    
        28.41       28.35       28.27       28.19       28.11       28.01       27.91       27.79       27.67       27.54    
        27.39       27.23       27.06       26.87       26.67       26.44       26.19       25.91       25.59       25.23    
   7    28.73       28.73       28.71       28.70       28.68       28.65       28.61       28.57       28.53       28.47    
        28.41       28.35       28.27       28.19       28.11       28.01       27.91       27.79       27.67       27.54    
        27.39       27.23       27.06       26.87       26.67       26.44       26.19       25.91       25.59       25.23    
   8    28.73       28.73       28.71       28.70       28.68       28.65       28.61       28.57       28.53       28.47    
        28.41       28.35       28.27       28.19       28.11       28.01       27.91       27.79       27.67       27.54    
        27.39       27.23       27.06       26.87       26.67       26.44       26.19       25.91       25.59       25.23    
   9    28.73       28.73       28.71       28.70       28.68       28.65       28.61       28.57       28.53       28.47    
        28.41       28.35       28.27       28.19       28.11       28.01       27.91       27.79       27.67       27.54    
        27.39       27.23       27.06       26.87       26.67       26.44       26.19       25.91       25.59       25.23    
  10    28.73       28.73       28.71       28.70       28.68       28.65       28.61       28.57       28.53       28.47    
        28.41       28.35       28.27       28.19       28.11       28.01       27.91       27.79       27.67       27.54    
        27.39       27.23       27.06       26.87       26.67       26.44       26.19       25.91       25.59       25.23    
  11    28.73       28.73       28.71       28.70       28.68       28.65       28.61       28.57       28.53       28.47    
        28.41       28.35       28.27       28.19       28.11       28.01       27.91       27.79       27.67       27.54    
        27.39       27.23       27.06       26.87       26.67       26.44       26.19       25.91       25.59       25.23    
  12    28.73       28.73       28.71       28.70       28.68       28.65       28.61       28.57       28.53       28.47    
        28.41       28.35       28.27       28.19       28.11       28.01       27.91       27.79       27.67       27.54    
        27.39       27.23       27.06       26.87       26.67       26.44       26.19       25.91       25.59       25.23    
  13    28.73       28.73       28.71       28.70       28.68       28.65       28.61       28.57       28.53       28.47    
        28.41       28.35       28.27       28.19       28.11       28.01       27.91       27.79       27.67       27.54    
        27.39       27.23       27.06       26.87       26.67       26.44       26.19       25.91       25.59       25.23    
  14    28.73       28.73       28.71       28.70       28.68       28.65       28.61       28.57       28.53       28.47    
        28.41       28.35       28.27       28.19       28.11       28.01       27.91       27.79       27.67       27.54    
        27.39       27.23       27.06       26.87       26.67       26.44       26.19       25.91       25.59       25.23    
  15    28.73       28.73       28.71       28.70       28.68       28.65       28.61       28.57       28.53       28.47    
        28.41       28.35       28.27       28.19       28.11       28.01       27.91       27.79       27.67       27.54    
        27.39       27.23       27.06       26.87       26.67       26.44       26.19       25.91       25.59       25.23    
  16    28.73       28.73       28.71       28.70       28.68       28.65       28.61       28.57       28.53       28.47    
        28.41       28.35       28.27       28.19       28.11       28.01       27.91       27.79       27.67       27.54    
        27.39       27.23       27.06       26.87       26.67       26.44       26.19       25.91       25.59       25.23    
  17    28.73       28.73       28.71       28.70       28.68       28.65       28.61       28.57       28.53       28.47    
        28.41       28.35       28.27       28.19       28.11       28.01       27.91       27.79       27.67       27.54    
        27.39       27.23       27.06       26.87       26.67       26.44       26.19       25.91       25.59       25.23    
  18    28.73       28.73       28.71       28.70       28.68       28.65       28.61       28.57       28.53       28.47    
        28.41       28.35       28.27       28.19       28.11       28.01       27.91       27.79       27.67       27.54    
        27.39       27.23       27.06       26.87       26.67       26.44       26.19       25.91       25.59       25.23    
  19    28.73       28.73       28.71       28.70       28.68       28.65       28.61       28.57       28.53       28.47    
        28.41       28.35       28.27       28.19       28.11       28.01       27.91       27.79       27.67       27.54    
        27.39       27.23       27.06       26.87       26.67       26.44       26.19       25.91       25.59       25.23    
  20    28.73       28.73       28.71       28.70       28.68       28.65       28.61       28.57       28.53       28.47    
        28.41       28.35       28.27       28.19       28.11       28.01       27.91       27.79       27.67       27.54    
        27.39       27.23       27.06       26.87       26.67       26.44       26.19       25.91       25.59       25.23    
  21    28.73       28.73       28.71       28.70       28.68       28.65       28.61       28.57       28.53       28.47    
        28.41       28.35       28.27       28.19       28.11       28.01       27.91       27.79       27.67       27.54    
        27.39       27.23       27.06       26.87       26.67       26.44       26.19       25.91       25.59       25.23    
  22    28.73       28.73       28.71       28.70       28.68       28.65       28.61       28.57       28.53       28.47    
        28.41       28.35       28.27       28.19       28.11       28.01       27.91       27.79       27.67       27.54    
        27.39       27.23       27.06       26.87       26.67       26.44       26.19       25.91       25.59       25.23    
  23    28.73       28.73       28.71       28.70       28.68       28.65       28.61       28.57       28.53       28.47    
        28.41       28.35       28.27       28.19       28.11       28.01       27.91       27.79       27.67       27.54    
        27.39       27.23       27.06       26.87       26.67       26.44       26.19       25.91       25.59       25.23    
  24    28.73       28.73       28.71       28.70       28.68       28.65       28.61       28.57       28.53       28.47    
        28.41       28.35       28.27       28.19       28.11       28.01       27.91       27.79       27.67       27.54    
        27.39       27.23       27.06       26.87       26.67       26.44       26.19       25.91       25.59       25.23    
  25    28.73       28.73       28.71       28.70       28.68       28.65       28.61       28.57       28.53       28.47    
        28.41       28.35       28.27       28.19       28.11       28.01       27.91       27.79       27.67       27.54    
        27.39       27.23       27.06       26.87       26.67       26.44       26.19       25.91       25.59       25.23    
  26    28.73       28.73       28.71       28.70       28.68       28.65       28.61       28.57       28.53       28.47    
        28.41       28.35       28.27       28.19       28.11       28.01       27.91       27.79       27.67       27.54    
        27.39       27.23       27.06       26.87       26.67       26.44       26.19       25.91       25.59       25.23    
  27    28.73       28.73       28.71       28.70       28.68       28.65       28.61       28.57       28.53       28.47    
        28.41       28.35       28.27       28.19       28.11       28.01       27.91       27.79       27.67       27.54    
        27.39       27.23       27.06       26.87       26.67       26.44       26.19       25.91       25.59       25.23    
  28    28.73       28.73       28.71       28.70       28.68       28.65       28.61       28.57       28.53       28.47    
        28.41       28.35       28.27       28.19       28.11       28.01       27.91       27.79       27.67       27.54    
        27.39       27.23       27.06       26.87       26.67       26.44       26.19       25.91       25.59       25.23    
  29    28.73       28.73       28.71       28.70       28.68       28.65       28.61       28.57       28.53       28.47    
        28.41       28.35       28.27       28.19       28.11       28.01       27.91       27.79       27.67       27.54    
        27.39       27.23       27.06       26.87       26.67       26.44       26.19       25.91       25.59       25.23    
  30    28.73       28.73       28.71       28.70       28.68       28.65       28.61       28.57       28.53       28.47    
        28.41       28.35       28.27       28.19       28.11       28.01       27.91       27.79       27.67       27.54    
        27.39       27.23       27.06       26.87       26.67       26.44       26.19       25.91       25.59       25.23    

 HEAD WILL BE SAVED ON UNIT 1017 AT END OF TIME STEP    1, STRESS PERIOD    3



         TIME SUMMARY AT END OF TIME STEP    1 IN STRESS PERIOD    3
                    SECONDS     MINUTES      HOURS       DAYS        YEARS
                    -----------------------------------------------------------
   TIME STEP LENGTH 2.59200E+05  4320.0      72.000      3.0000     8.21355E-03
 STRESS PERIOD TIME 2.59200E+05  4320.0      72.000      3.0000     8.21355E-03
         TOTAL TIME 2.93760E+06  48960.      816.00      34.000     9.30869E-02
 UBDSV1 SAVING           STO-SS ON UNIT   1016 AT TIME STEP      2, STRESS PERIOD      3
 UBDSV1 SAVING           STO-SY ON UNIT   1016 AT TIME STEP      2, STRESS PERIOD      3
 UBDSV1 SAVING     FLOW-JA-FACE ON UNIT   1016 AT TIME STEP      2, STRESS PERIOD      3
 UBDSV06 SAVING              RCH IN MODEL TEST_TRANS       PACKAGE TEST_TRANS      CONNECTED TO MODEL TEST_TRANS       PACKAGE RCHA             ON UNIT   1016 AT TIME STEP      2, STRESS PERIOD      3
 UBDSV06 SAVING              CHD IN MODEL TEST_TRANS       PACKAGE TEST_TRANS      CONNECTED TO MODEL TEST_TRANS       PACKAGE CHD              ON UNIT   1016 AT TIME STEP      2, STRESS PERIOD      3

 HEAD WILL BE SAVED ON UNIT 1017 AT END OF TIME STEP    2, STRESS PERIOD    3
 UBDSV1 SAVING           STO-SS ON UNIT   1016 AT TIME STEP      3, STRESS PERIOD      3
 UBDSV1 SAVING           STO-SY ON UNIT   1016 AT TIME STEP      3, STRESS PERIOD      3
 UBDSV1 SAVING     FLOW-JA-FACE ON UNIT   1016 AT TIME STEP      3, STRESS PERIOD      3
 UBDSV06 SAVING              RCH IN MODEL TEST_TRANS       PACKAGE TEST_TRANS      CONNECTED TO MODEL TEST_TRANS       PACKAGE RCHA             ON UNIT   1016 AT TIME STEP      3, STRESS PERIOD      3
 UBDSV06 SAVING              CHD IN MODEL TEST_TRANS       PACKAGE TEST_TRANS      CONNECTED TO MODEL TEST_TRANS       PACKAGE CHD              ON UNIT   1016 AT TIME STEP      3, STRESS PERIOD      3

 HEAD WILL BE SAVED ON UNIT 1017 AT END OF TIME STEP    3, STRESS PERIOD    3
 UBDSV1 SAVING           STO-SS ON UNIT   1016 AT TIME STEP      4, STRESS PERIOD      3
 UBDSV1 SAVING           STO-SY ON UNIT   1016 AT TIME STEP      4, STRESS PERIOD      3
 UBDSV1 SAVING     FLOW-JA-FACE ON UNIT   1016 AT TIME STEP      4, STRESS PERIOD      3
 UBDSV06 SAVING              RCH IN MODEL TEST_TRANS       PACKAGE TEST_TRANS      CONNECTED TO MODEL TEST_TRANS       PACKAGE RCHA             ON UNIT   1016 AT TIME STEP      4, STRESS PERIOD      3
 UBDSV06 SAVING              CHD IN MODEL TEST_TRANS       PACKAGE TEST_TRANS      CONNECTED TO MODEL TEST_TRANS       PACKAGE CHD              ON UNIT   1016 AT TIME STEP      4, STRESS PERIOD      3

 HEAD WILL BE SAVED ON UNIT 1017 AT END OF TIME STEP    4, STRESS PERIOD    3
 UBDSV1 SAVING           STO-SS ON UNIT   1016 AT TIME STEP      5, STRESS PERIOD      3
 UBDSV1 SAVING           STO-SY ON UNIT   1016 AT TIME STEP      5, STRESS PERIOD      3
 UBDSV1 SAVING     FLOW-JA-FACE ON UNIT   1016 AT TIME STEP      5, STRESS PERIOD      3
 UBDSV06 SAVING              RCH IN MODEL TEST_TRANS       PACKAGE TEST_TRANS      CONNECTED TO MODEL TEST_TRANS       PACKAGE RCHA             ON UNIT   1016 AT TIME STEP      5, STRESS PERIOD      3
 UBDSV06 SAVING              CHD IN MODEL TEST_TRANS       PACKAGE TEST_TRANS      CONNECTED TO MODEL TEST_TRANS       PACKAGE CHD              ON UNIT   1016 AT TIME STEP      5, STRESS PERIOD      3

 HEAD WILL BE SAVED ON UNIT 1017 AT END OF TIME STEP    5, STRESS PERIOD    3
 UBDSV1 SAVING           STO-SS ON UNIT   1016 AT TIME STEP      6, STRESS PERIOD      3
 UBDSV1 SAVING           STO-SY ON UNIT   1016 AT TIME STEP      6, STRESS PERIOD      3
 UBDSV1 SAVING     FLOW-JA-FACE ON UNIT   1016 AT TIME STEP      6, STRESS PERIOD      3
 UBDSV06 SAVING              RCH IN MODEL TEST_TRANS       PACKAGE TEST_TRANS      CONNECTED TO MODEL TEST_TRANS       PACKAGE RCHA             ON UNIT   1016 AT TIME STEP      6, STRESS PERIOD      3
 UBDSV06 SAVING              CHD IN MODEL TEST_TRANS       PACKAGE TEST_TRANS      CONNECTED TO MODEL TEST_TRANS       PACKAGE CHD              ON UNIT   1016 AT TIME STEP      6, STRESS PERIOD      3

 HEAD WILL BE SAVED ON UNIT 1017 AT END OF TIME STEP    6, STRESS PERIOD    3
 UBDSV1 SAVING           STO-SS ON UNIT   1016 AT TIME STEP      7, STRESS PERIOD      3
 UBDSV1 SAVING           STO-SY ON UNIT   1016 AT TIME STEP      7, STRESS PERIOD      3
 UBDSV1 SAVING     FLOW-JA-FACE ON UNIT   1016 AT TIME STEP      7, STRESS PERIOD      3
 UBDSV06 SAVING              RCH IN MODEL TEST_TRANS       PACKAGE TEST_TRANS      CONNECTED TO MODEL TEST_TRANS       PACKAGE RCHA             ON UNIT   1016 AT TIME STEP      7, STRESS PERIOD      3
 UBDSV06 SAVING              CHD IN MODEL TEST_TRANS       PACKAGE TEST_TRANS      CONNECTED TO MODEL TEST_TRANS       PACKAGE CHD              ON UNIT   1016 AT TIME STEP      7, STRESS PERIOD      3

 HEAD WILL BE SAVED ON UNIT 1017 AT END OF TIME STEP    7, STRESS PERIOD    3
 UBDSV1 SAVING           STO-SS ON UNIT   1016 AT TIME STEP      8, STRESS PERIOD      3
 UBDSV1 SAVING           STO-SY ON UNIT   1016 AT TIME STEP      8, STRESS PERIOD      3
 UBDSV1 SAVING     FLOW-JA-FACE ON UNIT   1016 AT TIME STEP      8, STRESS PERIOD      3
 UBDSV06 SAVING              RCH IN MODEL TEST_TRANS       PACKAGE TEST_TRANS      CONNECTED TO MODEL TEST_TRANS       PACKAGE RCHA             ON UNIT   1016 AT TIME STEP      8, STRESS PERIOD      3
 UBDSV06 SAVING              CHD IN MODEL TEST_TRANS       PACKAGE TEST_TRANS      CONNECTED TO MODEL TEST_TRANS       PACKAGE CHD              ON UNIT   1016 AT TIME STEP      8, STRESS PERIOD      3

 HEAD WILL BE SAVED ON UNIT 1017 AT END OF TIME STEP    8, STRESS PERIOD    3
 UBDSV1 SAVING           STO-SS ON UNIT   1016 AT TIME STEP      9, STRESS PERIOD      3
 UBDSV1 SAVING           STO-SY ON UNIT   1016 AT TIME STEP      9, STRESS PERIOD      3
 UBDSV1 SAVING     FLOW-JA-FACE ON UNIT   1016 AT TIME STEP      9, STRESS PERIOD      3
 UBDSV06 SAVING              RCH IN MODEL TEST_TRANS       PACKAGE TEST_TRANS      CONNECTED TO MODEL TEST_TRANS       PACKAGE RCHA             ON UNIT   1016 AT TIME STEP      9, STRESS PERIOD      3
 UBDSV06 SAVING              CHD IN MODEL TEST_TRANS       PACKAGE TEST_TRANS      CONNECTED TO MODEL TEST_TRANS       PACKAGE CHD              ON UNIT   1016 AT TIME STEP      9, STRESS PERIOD      3

 HEAD WILL BE SAVED ON UNIT 1017 AT END OF TIME STEP    9, STRESS PERIOD    3
 UBDSV1 SAVING           STO-SS ON UNIT   1016 AT TIME STEP     10, STRESS PERIOD      3
 UBDSV1 SAVING           STO-SY ON UNIT   1016 AT TIME STEP     10, STRESS PERIOD      3
 UBDSV1 SAVING     FLOW-JA-FACE ON UNIT   1016 AT TIME STEP     10, STRESS PERIOD      3
 UBDSV06 SAVING              RCH IN MODEL TEST_TRANS       PACKAGE TEST_TRANS      CONNECTED TO MODEL TEST_TRANS       PACKAGE RCHA             ON UNIT   1016 AT TIME STEP     10, STRESS PERIOD      3
 UBDSV06 SAVING              CHD IN MODEL TEST_TRANS       PACKAGE TEST_TRANS      CONNECTED TO MODEL TEST_TRANS       PACKAGE CHD              ON UNIT   1016 AT TIME STEP     10, STRESS PERIOD      3
1
  HEAD IN LAYER   1 AT END OF TIME STEP  10 IN STRESS PERIOD    3
  ---------------------------------------------------------------------------

            1           2           3           4           5           6           7           8           9          10
           11          12          13          14          15          16          17          18          19          20
           21          22          23          24          25          26          27          28          29          30
 ........................................................................................................................
   1    28.69       28.68       28.67       28.66       28.63       28.61       28.57       28.53       28.48       28.43    
        28.37       28.31       28.24       28.16       28.07       27.97       27.87       27.76       27.64       27.51    
        27.37       27.21       27.04       26.86       26.66       26.44       26.20       25.92       25.61       25.23    
   2    28.69       28.68       28.67       28.66       28.63       28.61       28.57       28.53       28.48       28.43    
        28.37       28.31       28.24       28.16       28.07       27.97       27.87       27.76       27.64       27.51    
        27.37       27.21       27.04       26.86       26.66       26.44       26.20       25.92       25.61       25.23    
   3    28.69       28.68       28.67       28.66       28.63       28.61       28.57       28.53       28.48       28.43    
        28.37       28.31       28.24       28.16       28.07       27.97       27.87       27.76       27.64       27.51    
        27.37       27.21       27.04       26.86       26.66       26.44       26.20       25.92       25.61       25.23    
   4    28.69       28.68       28.67       28.66       28.63       28.61       28.57       28.53       28.48       28.43    
        28.37       28.31       28.24       28.16       28.07       27.97       27.87       27.76       27.64       27.51    
        27.37       27.21       27.04       26.86       26.66       26.44       26.20       25.92       25.61       25.23    
   5    28.69       28.68       28.67       28.66       28.63       28.61       28.57       28.53       28.48       28.43    
        28.37       28.31       28.24       28.16       28.07       27.97       27.87       27.76       27.64       27.51    
        27.37       27.21       27.04       26.86       26.66       26.44       26.20       25.92       25.61       25.23    
   6    28.69       28.68       28.67       28.66       28.63       28.61       28.57       28.53       28.48       28.43    
        28.37       28.31       28.24       28.16       28.07       27.97       27.87       27.76       27.64       27.51    
        27.37       27.21       27.04       26.86       26.66       26.44       26.20       25.92       25.61       25.23    
   7    28.69       28.68       28.67       28.66       28.63       28.61       28.57       28.53       28.48       28.43    
        28.37       28.31       28.24       28.16       28.07       27.97       27.87       27.76       27.64       27.51    
        27.37       27.21       27.04       26.86       26.66       26.44       26.20       25.92       25.61       25.23    
   8    28.69       28.68       28.67       28.66       28.63       28.61       28.57       28.53       28.48       28.43    
        28.37       28.31       28.24       28.16       28.07       27.97       27.87       27.76       27.64       27.51    
        27.37       27.21       27.04       26.86       26.66       26.44       26.20       25.92       25.61       25.23    
   9    28.69       28.68       28.67       28.66       28.63       28.61       28.57       28.53       28.48       28.43    
        28.37       28.31       28.24       28.16       28.07       27.97       27.87       27.76       27.64       27.51    
        27.37       27.21       27.04       26.86       26.66       26.44       26.20       25.92       25.61       25.23    
  10    28.69       28.68       28.67       28.66       28.63       28.61       28.57       28.53       28.48       28.43    
        28.37       28.31       28.24       28.16       28.07       27.97       27.87       27.76       27.64       27.51    
        27.37       27.21       27.04       26.86       26.66       26.44       26.20       25.92       25.61       25.23    
  11    28.69       28.68       28.67       28.66       28.63       28.61       28.57       28.53       28.48       28.43    
        28.37       28.31       28.24       28.16       28.07       27.97       27.87       27.76       27.64       27.51    
        27.37       27.21       27.04       26.86       26.66       26.44       26.20       25.92       25.61       25.23    
  12    28.69       28.68       28.67       28.66       28.63       28.61       28.57       28.53       28.48       28.43    
        28.37       28.31       28.24       28.16       28.07       27.97       27.87       27.76       27.64       27.51    
        27.37       27.21       27.04       26.86       26.66       26.44       26.20       25.92       25.61       25.23    
  13    28.69       28.68       28.67       28.66       28.63       28.61       28.57       28.53       28.48       28.43    
        28.37       28.31       28.24       28.16       28.07       27.97       27.87       27.76       27.64       27.51    
        27.37       27.21       27.04       26.86       26.66       26.44       26.20       25.92       25.61       25.23    
  14    28.69       28.68       28.67       28.66       28.63       28.61       28.57       28.53       28.48       28.43    
        28.37       28.31       28.24       28.16       28.07       27.97       27.87       27.76       27.64       27.51    
        27.37       27.21       27.04       26.86       26.66       26.44       26.20       25.92       25.61       25.23    
  15    28.69       28.68       28.67       28.66       28.63       28.61       28.57       28.53       28.48       28.43    
        28.37       28.31       28.24       28.16       28.07       27.97       27.87       27.76       27.64       27.51    
        27.37       27.21       27.04       26.86       26.66       26.44       26.20       25.92       25.61       25.23    
  16    28.69       28.68       28.67       28.66       28.63       28.61       28.57       28.53       28.48       28.43    
        28.37       28.31       28.24       28.16       28.07       27.97       27.87       27.76       27.64       27.51    
        27.37       27.21       27.04       26.86       26.66       26.44       26.20       25.92       25.61       25.23    
  17    28.69       28.68       28.67       28.66       28.63       28.61       28.57       28.53       28.48       28.43    
        28.37       28.31       28.24       28.16       28.07       27.97       27.87       27.76       27.64       27.51    
        27.37       27.21       27.04       26.86       26.66       26.44       26.20       25.92       25.61       25.23    
  18    28.69       28.68       28.67       28.66       28.63       28.61       28.57       28.53       28.48       28.43    
        28.37       28.31       28.24       28.16       28.07       27.97       27.87       27.76       27.64       27.51    
        27.37       27.21       27.04       26.86       26.66       26.44       26.20       25.92       25.61       25.23    
  19    28.69       28.68       28.67       28.66       28.63       28.61       28.57       28.53       28.48       28.43    
        28.37       28.31       28.24       28.16       28.07       27.97       27.87       27.76       27.64       27.51    
        27.37       27.21       27.04       26.86       26.66       26.44       26.20       25.92       25.61       25.23    
  20    28.69       28.68       28.67       28.66       28.63       28.61       28.57       28.53       28.48       28.43    
        28.37       28.31       28.24       28.16       28.07       27.97       27.87       27.76       27.64       27.51    
        27.37       27.21       27.04       26.86       26.66       26.44       26.20       25.92       25.61       25.23    
  21    28.69       28.68       28.67       28.66       28.63       28.61       28.57       28.53       28.48       28.43    
        28.37       28.31       28.24       28.16       28.07       27.97       27.87       27.76       27.64       27.51    
        27.37       27.21       27.04       26.86       26.66       26.44       26.20       25.92       25.61       25.23    
  22    28.69       28.68       28.67       28.66       28.63       28.61       28.57       28.53       28.48       28.43    
        28.37       28.31       28.24       28.16       28.07       27.97       27.87       27.76       27.64       27.51    
        27.37       27.21       27.04       26.86       26.66       26.44       26.20       25.92       25.61       25.23    
  23    28.69       28.68       28.67       28.66       28.63       28.61       28.57       28.53       28.48       28.43    
        28.37       28.31       28.24       28.16       28.07       27.97       27.87       27.76       27.64       27.51    
        27.37       27.21       27.04       26.86       26.66       26.44       26.20       25.92       25.61       25.23    
  24    28.69       28.68       28.67       28.66       28.63       28.61       28.57       28.53       28.48       28.43    
        28.37       28.31       28.24       28.16       28.07       27.97       27.87       27.76       27.64       27.51    
        27.37       27.21       27.04       26.86       26.66       26.44       26.20       25.92       25.61       25.23    
  25    28.69       28.68       28.67       28.66       28.63       28.61       28.57       28.53       28.48       28.43    
        28.37       28.31       28.24       28.16       28.07       27.97       27.87       27.76       27.64       27.51    
        27.37       27.21       27.04       26.86       26.66       26.44       26.20       25.92       25.61       25.23    
  26    28.69       28.68       28.67       28.66       28.63       28.61       28.57       28.53       28.48       28.43    
        28.37       28.31       28.24       28.16       28.07       27.97       27.87       27.76       27.64       27.51    
        27.37       27.21       27.04       26.86       26.66       26.44       26.20       25.92       25.61       25.23    
  27    28.69       28.68       28.67       28.66       28.63       28.61       28.57       28.53       28.48       28.43    
        28.37       28.31       28.24       28.16       28.07       27.97       27.87       27.76       27.64       27.51    
        27.37       27.21       27.04       26.86       26.66       26.44       26.20       25.92       25.61       25.23    
  28    28.69       28.68       28.67       28.66       28.63       28.61       28.57       28.53       28.48       28.43    
        28.37       28.31       28.24       28.16       28.07       27.97       27.87       27.76       27.64       27.51    
        27.37       27.21       27.04       26.86       26.66       26.44       26.20       25.92       25.61       25.23    
  29    28.69       28.68       28.67       28.66       28.63       28.61       28.57       28.53       28.48       28.43    
        28.37       28.31       28.24       28.16       28.07       27.97       27.87       27.76       27.64       27.51    
        27.37       27.21       27.04       26.86       26.66       26.44       26.20       25.92       25.61       25.23    
  30    28.69       28.68       28.67       28.66       28.63       28.61       28.57       28.53       28.48       28.43    
        28.37       28.31       28.24       28.16       28.07       27.97       27.87       27.76       27.64       27.51    
        27.37       27.21       27.04       26.86       26.66       26.44       26.20       25.92       25.61       25.23    

 HEAD WILL BE SAVED ON UNIT 1017 AT END OF TIME STEP   10, STRESS PERIOD    3


  VOLUME BUDGET FOR ENTIRE MODEL AT END OF TIME STEP   10, STRESS PERIOD   3
  ---------------------------------------------------------------------------------------------------

     CUMULATIVE VOLUME      L**3       RATES FOR THIS TIME STEP      L**3/T          PACKAGE NAME    
     ------------------                 ------------------------                     ----------------

           IN:                                      IN:
           ---                                      ---
              STO-SS =           0.9842                STO-SS =       2.9867E-02     STORAGE         
              STO-SY =         589.4495                STO-SY =          17.9608     STORAGE         
                 RCH =       15254.7827                   RCH =         214.5203     RCHA            
                 CHD =           0.0000                   CHD =           0.0000     CHD             

            TOTAL IN =       15845.2165              TOTAL IN =         232.5109

          OUT:                                     OUT:
          ----                                     ----
              STO-SS =           2.1820                STO-SS =           0.0000     STORAGE         
              STO-SY =        1343.6379                STO-SY =           0.0000     STORAGE         
                 RCH =           0.0000                   RCH =           0.0000     RCHA            
                 CHD =       14499.2389                   CHD =         232.4909     CHD             

           TOTAL OUT =       15845.0588             TOTAL OUT =         232.4909

            IN - OUT =           0.1577              IN - OUT =       2.0003E-02

 PERCENT DISCREPANCY =           0.00     PERCENT DISCREPANCY =           0.01




         TIME SUMMARY AT END OF TIME STEP   10 IN STRESS PERIOD    3
                    SECONDS     MINUTES      HOURS       DAYS        YEARS
                    -----------------------------------------------------------
   TIME STEP LENGTH 2.59200E+05  4320.0      72.000      3.0000     8.21355E-03
 STRESS PERIOD TIME 2.59200E+06  43200.      720.00      30.000     8.21355E-02
         TOTAL TIME 5.27040E+06  87840.      1464.0      61.000     0.16701    

 OUTPUT CONTROL FOR STRESS PERIOD 4 IS REPEATED USING SETTINGS FROM A PREVIOUS STRESS PERIOD.


 STRESS PERIOD 4 IS TRANSIENT


                 RECHARGE =  0.1643840E-02
 UBDSV1 SAVING           STO-SS ON UNIT   1016 AT TIME STEP      1, STRESS PERIOD      4
 UBDSV1 SAVING           STO-SY ON UNIT   1016 AT TIME STEP      1, STRESS PERIOD      4
 UBDSV1 SAVING     FLOW-JA-FACE ON UNIT   1016 AT TIME STEP      1, STRESS PERIOD      4
 UBDSV06 SAVING              RCH IN MODEL TEST_TRANS       PACKAGE TEST_TRANS      CONNECTED TO MODEL TEST_TRANS       PACKAGE RCHA             ON UNIT   1016 AT TIME STEP      1, STRESS PERIOD      4
 UBDSV06 SAVING              CHD IN MODEL TEST_TRANS       PACKAGE TEST_TRANS      CONNECTED TO MODEL TEST_TRANS       PACKAGE CHD              ON UNIT   1016 AT TIME STEP      1, STRESS PERIOD      4
1
  HEAD IN LAYER   1 AT END OF TIME STEP   1 IN STRESS PERIOD    4
  ---------------------------------------------------------------------------

            1           2           3           4           5           6           7           8           9          10
           11          12          13          14          15          16          17          18          19          20
           21          22          23          24          25          26          27          28          29          30
 ........................................................................................................................
   1    28.67       28.67       28.66       28.64       28.62       28.59       28.55       28.51       28.47       28.42    
        28.36       28.29       28.22       28.14       28.05       27.96       27.86       27.74       27.62       27.49    
        27.35       27.20       27.03       26.85       26.65       26.44       26.20       25.94       25.66       25.34    
   2    28.67       28.67       28.66       28.64       28.62       28.59       28.55       28.51       28.47       28.42    
        28.36       28.29       28.22       28.14       28.05       27.96       27.86       27.74       27.62       27.49    
        27.35       27.20       27.03       26.85       26.65       26.44       26.20       25.94       25.66       25.34    
   3    28.67       28.67       28.66       28.64       28.62       28.59       28.55       28.51       28.47       28.42    
        28.36       28.29       28.22       28.14       28.05       27.96       27.86       27.74       27.62       27.49    
        27.35       27.20       27.03       26.85       26.65       26.44       26.20       25.94       25.66       25.34    
   4    28.67       28.67       28.66       28.64       28.62       28.59       28.55       28.51       28.47       28.42    
        28.36       28.29       28.22       28.14       28.05       27.96       27.86       27.74       27.62       27.49    
        27.35       27.20       27.03       26.85       26.65       26.44       26.20       25.94       25.66       25.34    
   5    28.67       28.67       28.66       28.64       28.62       28.59       28.55       28.51       28.47       28.42    
        28.36       28.29       28.22       28.14       28.05       27.96       27.86       27.74       27.62       27.49    
        27.35       27.20       27.03       26.85       26.65       26.44       26.20       25.94       25.66       25.34    
   6    28.67       28.67       28.66       28.64       28.62       28.59       28.55       28.51       28.47       28.42    
        28.36       28.29       28.22       28.14       28.05       27.96       27.86       27.74       27.62       27.49    
        27.35       27.20       27.03       26.85       26.65       26.44       26.20       25.94       25.66       25.34    
   7    28.67       28.67       28.66       28.64       28.62       28.59       28.55       28.51       28.47       28.42    
        28.36       28.29       28.22       28.14       28.05       27.96       27.86       27.74       27.62       27.49    
        27.35       27.20       27.03       26.85       26.65       26.44       26.20       25.94       25.66       25.34    
   8    28.67       28.67       28.66       28.64       28.62       28.59       28.55       28.51       28.47       28.42    
        28.36       28.29       28.22       28.14       28.05       27.96       27.86       27.74       27.62       27.49    
        27.35       27.20       27.03       26.85       26.65       26.44       26.20       25.94       25.66       25.34    
   9    28.67       28.67       28.66       28.64       28.62       28.59       28.55       28.51       28.47       28.42    
        28.36       28.29       28.22       28.14       28.05       27.96       27.86       27.74       27.62       27.49    
        27.35       27.20       27.03       26.85       26.65       26.44       26.20       25.94       25.66       25.34    
  10    28.67       28.67       28.66       28.64       28.62       28.59       28.55       28.51       28.47       28.42    
        28.36       28.29       28.22       28.14       28.05       27.96       27.86       27.74       27.62       27.49    
        27.35       27.20       27.03       26.85       26.65       26.44       26.20       25.94       25.66       25.34    
  11    28.67       28.67       28.66       28.64       28.62       28.59       28.55       28.51       28.47       28.42    
        28.36       28.29       28.22       28.14       28.05       27.96       27.86       27.74       27.62       27.49    
        27.35       27.20       27.03       26.85       26.65       26.44       26.20       25.94       25.66       25.34    
  12    28.67       28.67       28.66       28.64       28.62       28.59       28.55       28.51       28.47       28.42    
        28.36       28.29       28.22       28.14       28.05       27.96       27.86       27.74       27.62       27.49    
        27.35       27.20       27.03       26.85       26.65       26.44       26.20       25.94       25.66       25.34    
  13    28.67       28.67       28.66       28.64       28.62       28.59       28.55       28.51       28.47       28.42    
        28.36       28.29       28.22       28.14       28.05       27.96       27.86       27.74       27.62       27.49    
        27.35       27.20       27.03       26.85       26.65       26.44       26.20       25.94       25.66       25.34    
  14    28.67       28.67       28.66       28.64       28.62       28.59       28.55       28.51       28.47       28.42    
        28.36       28.29       28.22       28.14       28.05       27.96       27.86       27.74       27.62       27.49    
        27.35       27.20       27.03       26.85       26.65       26.44       26.20       25.94       25.66       25.34    
  15    28.67       28.67       28.66       28.64       28.62       28.59       28.55       28.51       28.47       28.42    
        28.36       28.29       28.22       28.14       28.05       27.96       27.86       27.74       27.62       27.49    
        27.35       27.20       27.03       26.85       26.65       26.44       26.20       25.94       25.66       25.34    
  16    28.67       28.67       28.66       28.64       28.62       28.59       28.55       28.51       28.47       28.42    
        28.36       28.29       28.22       28.14       28.05       27.96       27.86       27.74       27.62       27.49    
        27.35       27.20       27.03       26.85       26.65       26.44       26.20       25.94       25.66       25.34    
  17    28.67       28.67       28.66       28.64       28.62       28.59       28.55       28.51       28.47       28.42    
        28.36       28.29       28.22       28.14       28.05       27.96       27.86       27.74       27.62       27.49    
        27.35       27.20       27.03       26.85       26.65       26.44       26.20       25.94       25.66       25.34    
  18    28.67       28.67       28.66       28.64       28.62       28.59       28.55       28.51       28.47       28.42    
        28.36       28.29       28.22       28.14       28.05       27.96       27.86       27.74       27.62       27.49    
        27.35       27.20       27.03       26.85       26.65       26.44       26.20       25.94       25.66       25.34    
  19    28.67       28.67       28.66       28.64       28.62       28.59       28.55       28.51       28.47       28.42    
        28.36       28.29       28.22       28.14       28.05       27.96       27.86       27.74       27.62       27.49    
        27.35       27.20       27.03       26.85       26.65       26.44       26.20       25.94       25.66       25.34    
  20    28.67       28.67       28.66       28.64       28.62       28.59       28.55       28.51       28.47       28.42    
        28.36       28.29       28.22       28.14       28.05       27.96       27.86       27.74       27.62       27.49    
        27.35       27.20       27.03       26.85       26.65       26.44       26.20       25.94       25.66       25.34    
  21    28.67       28.67       28.66       28.64       28.62       28.59       28.55       28.51       28.47       28.42    
        28.36       28.29       28.22       28.14       28.05       27.96       27.86       27.74       27.62       27.49    
        27.35       27.20       27.03       26.85       26.65       26.44       26.20       25.94       25.66       25.34    
  22    28.67       28.67       28.66       28.64       28.62       28.59       28.55       28.51       28.47       28.42    
        28.36       28.29       28.22       28.14       28.05       27.96       27.86       27.74       27.62       27.49    
        27.35       27.20       27.03       26.85       26.65       26.44       26.20       25.94       25.66       25.34    
  23    28.67       28.67       28.66       28.64       28.62       28.59       28.55       28.51       28.47       28.42    
        28.36       28.29       28.22       28.14       28.05       27.96       27.86       27.74       27.62       27.49    
        27.35       27.20       27.03       26.85       26.65       26.44       26.20       25.94       25.66       25.34    
  24    28.67       28.67       28.66       28.64       28.62       28.59       28.55       28.51       28.47       28.42    
        28.36       28.29       28.22       28.14       28.05       27.96       27.86       27.74       27.62       27.49    
        27.35       27.20       27.03       26.85       26.65       26.44       26.20       25.94       25.66       25.34    
  25    28.67       28.67       28.66       28.64       28.62       28.59       28.55       28.51       28.47       28.42    
        28.36       28.29       28.22       28.14       28.05       27.96       27.86       27.74       27.62       27.49    
        27.35       27.20       27.03       26.85       26.65       26.44       26.20       25.94       25.66       25.34    
  26    28.67       28.67       28.66       28.64       28.62       28.59       28.55       28.51       28.47       28.42    
        28.36       28.29       28.22       28.14       28.05       27.96       27.86       27.74       27.62       27.49    
        27.35       27.20       27.03       26.85       26.65       26.44       26.20       25.94       25.66       25.34    
  27    28.67       28.67       28.66       28.64       28.62       28.59       28.55       28.51       28.47       28.42    
        28.36       28.29       28.22       28.14       28.05       27.96       27.86       27.74       27.62       27.49    
        27.35       27.20       27.03       26.85       26.65       26.44       26.20       25.94       25.66       25.34    
  28    28.67       28.67       28.66       28.64       28.62       28.59       28.55       28.51       28.47       28.42    
        28.36       28.29       28.22       28.14       28.05       27.96       27.86       27.74       27.62       27.49    
        27.35       27.20       27.03       26.85       26.65       26.44       26.20       25.94       25.66       25.34    
  29    28.67       28.67       28.66       28.64       28.62       28.59       28.55       28.51       28.47       28.42    
        28.36       28.29       28.22       28.14       28.05       27.96       27.86       27.74       27.62       27.49    
        27.35       27.20       27.03       26.85       26.65       26.44       26.20       25.94       25.66       25.34    
  30    28.67       28.67       28.66       28.64       28.62       28.59       28.55       28.51       28.47       28.42    
        28.36       28.29       28.22       28.14       28.05       27.96       27.86       27.74       27.62       27.49    
        27.35       27.20       27.03       26.85       26.65       26.44       26.20       25.94       25.66       25.34    

 HEAD WILL BE SAVED ON UNIT 1017 AT END OF TIME STEP    1, STRESS PERIOD    4



         TIME SUMMARY AT END OF TIME STEP    1 IN STRESS PERIOD    4
                    SECONDS     MINUTES      HOURS       DAYS        YEARS
                    -----------------------------------------------------------
   TIME STEP LENGTH 2.59200E+05  4320.0      72.000      3.0000     8.21355E-03
 STRESS PERIOD TIME 2.59200E+05  4320.0      72.000      3.0000     8.21355E-03
         TOTAL TIME 5.52960E+06  92160.      1536.0      64.000     0.17522    
 UBDSV1 SAVING           STO-SS ON UNIT   1016 AT TIME STEP      2, STRESS PERIOD      4
 UBDSV1 SAVING           STO-SY ON UNIT   1016 AT TIME STEP      2, STRESS PERIOD      4
 UBDSV1 SAVING     FLOW-JA-FACE ON UNIT   1016 AT TIME STEP      2, STRESS PERIOD      4
 UBDSV06 SAVING              RCH IN MODEL TEST_TRANS       PACKAGE TEST_TRANS      CONNECTED TO MODEL TEST_TRANS       PACKAGE RCHA             ON UNIT   1016 AT TIME STEP      2, STRESS PERIOD      4
 UBDSV06 SAVING              CHD IN MODEL TEST_TRANS       PACKAGE TEST_TRANS      CONNECTED TO MODEL TEST_TRANS       PACKAGE CHD              ON UNIT   1016 AT TIME STEP      2, STRESS PERIOD      4

 HEAD WILL BE SAVED ON UNIT 1017 AT END OF TIME STEP    2, STRESS PERIOD    4
 UBDSV1 SAVING           STO-SS ON UNIT   1016 AT TIME STEP      3, STRESS PERIOD      4
 UBDSV1 SAVING           STO-SY ON UNIT   1016 AT TIME STEP      3, STRESS PERIOD      4
 UBDSV1 SAVING     FLOW-JA-FACE ON UNIT   1016 AT TIME STEP      3, STRESS PERIOD      4
 UBDSV06 SAVING              RCH IN MODEL TEST_TRANS       PACKAGE TEST_TRANS      CONNECTED TO MODEL TEST_TRANS       PACKAGE RCHA             ON UNIT   1016 AT TIME STEP      3, STRESS PERIOD      4
 UBDSV06 SAVING              CHD IN MODEL TEST_TRANS       PACKAGE TEST_TRANS      CONNECTED TO MODEL TEST_TRANS       PACKAGE CHD              ON UNIT   1016 AT TIME STEP      3, STRESS PERIOD      4

 HEAD WILL BE SAVED ON UNIT 1017 AT END OF TIME STEP    3, STRESS PERIOD    4
 UBDSV1 SAVING           STO-SS ON UNIT   1016 AT TIME STEP      4, STRESS PERIOD      4
 UBDSV1 SAVING           STO-SY ON UNIT   1016 AT TIME STEP      4, STRESS PERIOD      4
 UBDSV1 SAVING     FLOW-JA-FACE ON UNIT   1016 AT TIME STEP      4, STRESS PERIOD      4
 UBDSV06 SAVING              RCH IN MODEL TEST_TRANS       PACKAGE TEST_TRANS      CONNECTED TO MODEL TEST_TRANS       PACKAGE RCHA             ON UNIT   1016 AT TIME STEP      4, STRESS PERIOD      4
 UBDSV06 SAVING              CHD IN MODEL TEST_TRANS       PACKAGE TEST_TRANS      CONNECTED TO MODEL TEST_TRANS       PACKAGE CHD              ON UNIT   1016 AT TIME STEP      4, STRESS PERIOD      4

 HEAD WILL BE SAVED ON UNIT 1017 AT END OF TIME STEP    4, STRESS PERIOD    4
 UBDSV1 SAVING           STO-SS ON UNIT   1016 AT TIME STEP      5, STRESS PERIOD      4
 UBDSV1 SAVING           STO-SY ON UNIT   1016 AT TIME STEP      5, STRESS PERIOD      4
 UBDSV1 SAVING     FLOW-JA-FACE ON UNIT   1016 AT TIME STEP      5, STRESS PERIOD      4
 UBDSV06 SAVING              RCH IN MODEL TEST_TRANS       PACKAGE TEST_TRANS      CONNECTED TO MODEL TEST_TRANS       PACKAGE RCHA             ON UNIT   1016 AT TIME STEP      5, STRESS PERIOD      4
 UBDSV06 SAVING              CHD IN MODEL TEST_TRANS       PACKAGE TEST_TRANS      CONNECTED TO MODEL TEST_TRANS       PACKAGE CHD              ON UNIT   1016 AT TIME STEP      5, STRESS PERIOD      4

 HEAD WILL BE SAVED ON UNIT 1017 AT END OF TIME STEP    5, STRESS PERIOD    4
 UBDSV1 SAVING           STO-SS ON UNIT   1016 AT TIME STEP      6, STRESS PERIOD      4
 UBDSV1 SAVING           STO-SY ON UNIT   1016 AT TIME STEP      6, STRESS PERIOD      4
 UBDSV1 SAVING     FLOW-JA-FACE ON UNIT   1016 AT TIME STEP      6, STRESS PERIOD      4
 UBDSV06 SAVING              RCH IN MODEL TEST_TRANS       PACKAGE TEST_TRANS      CONNECTED TO MODEL TEST_TRANS       PACKAGE RCHA             ON UNIT   1016 AT TIME STEP      6, STRESS PERIOD      4
 UBDSV06 SAVING              CHD IN MODEL TEST_TRANS       PACKAGE TEST_TRANS      CONNECTED TO MODEL TEST_TRANS       PACKAGE CHD              ON UNIT   1016 AT TIME STEP      6, STRESS PERIOD      4

 HEAD WILL BE SAVED ON UNIT 1017 AT END OF TIME STEP    6, STRESS PERIOD    4
 UBDSV1 SAVING           STO-SS ON UNIT   1016 AT TIME STEP      7, STRESS PERIOD      4
 UBDSV1 SAVING           STO-SY ON UNIT   1016 AT TIME STEP      7, STRESS PERIOD      4
 UBDSV1 SAVING     FLOW-JA-FACE ON UNIT   1016 AT TIME STEP      7, STRESS PERIOD      4
 UBDSV06 SAVING              RCH IN MODEL TEST_TRANS       PACKAGE TEST_TRANS      CONNECTED TO MODEL TEST_TRANS       PACKAGE RCHA             ON UNIT   1016 AT TIME STEP      7, STRESS PERIOD      4
 UBDSV06 SAVING              CHD IN MODEL TEST_TRANS       PACKAGE TEST_TRANS      CONNECTED TO MODEL TEST_TRANS       PACKAGE CHD              ON UNIT   1016 AT TIME STEP      7, STRESS PERIOD      4

 HEAD WILL BE SAVED ON UNIT 1017 AT END OF TIME STEP    7, STRESS PERIOD    4
 UBDSV1 SAVING           STO-SS ON UNIT   1016 AT TIME STEP      8, STRESS PERIOD      4
 UBDSV1 SAVING           STO-SY ON UNIT   1016 AT TIME STEP      8, STRESS PERIOD      4
 UBDSV1 SAVING     FLOW-JA-FACE ON UNIT   1016 AT TIME STEP      8, STRESS PERIOD      4
 UBDSV06 SAVING              RCH IN MODEL TEST_TRANS       PACKAGE TEST_TRANS      CONNECTED TO MODEL TEST_TRANS       PACKAGE RCHA             ON UNIT   1016 AT TIME STEP      8, STRESS PERIOD      4
 UBDSV06 SAVING              CHD IN MODEL TEST_TRANS       PACKAGE TEST_TRANS      CONNECTED TO MODEL TEST_TRANS       PACKAGE CHD              ON UNIT   1016 AT TIME STEP      8, STRESS PERIOD      4

 HEAD WILL BE SAVED ON UNIT 1017 AT END OF TIME STEP    8, STRESS PERIOD    4
 UBDSV1 SAVING           STO-SS ON UNIT   1016 AT TIME STEP      9, STRESS PERIOD      4
 UBDSV1 SAVING           STO-SY ON UNIT   1016 AT TIME STEP      9, STRESS PERIOD      4
 UBDSV1 SAVING     FLOW-JA-FACE ON UNIT   1016 AT TIME STEP      9, STRESS PERIOD      4
 UBDSV06 SAVING              RCH IN MODEL TEST_TRANS       PACKAGE TEST_TRANS      CONNECTED TO MODEL TEST_TRANS       PACKAGE RCHA             ON UNIT   1016 AT TIME STEP      9, STRESS PERIOD      4
 UBDSV06 SAVING              CHD IN MODEL TEST_TRANS       PACKAGE TEST_TRANS      CONNECTED TO MODEL TEST_TRANS       PACKAGE CHD              ON UNIT   1016 AT TIME STEP      9, STRESS PERIOD      4

 HEAD WILL BE SAVED ON UNIT 1017 AT END OF TIME STEP    9, STRESS PERIOD    4
 UBDSV1 SAVING           STO-SS ON UNIT   1016 AT TIME STEP     10, STRESS PERIOD      4
 UBDSV1 SAVING           STO-SY ON UNIT   1016 AT TIME STEP     10, STRESS PERIOD      4
 UBDSV1 SAVING     FLOW-JA-FACE ON UNIT   1016 AT TIME STEP     10, STRESS PERIOD      4
 UBDSV06 SAVING              RCH IN MODEL TEST_TRANS       PACKAGE TEST_TRANS      CONNECTED TO MODEL TEST_TRANS       PACKAGE RCHA             ON UNIT   1016 AT TIME STEP     10, STRESS PERIOD      4
 UBDSV06 SAVING              CHD IN MODEL TEST_TRANS       PACKAGE TEST_TRANS      CONNECTED TO MODEL TEST_TRANS       PACKAGE CHD              ON UNIT   1016 AT TIME STEP     10, STRESS PERIOD      4
1
  HEAD IN LAYER   1 AT END OF TIME STEP  10 IN STRESS PERIOD    4
  ---------------------------------------------------------------------------

            1           2           3           4           5           6           7           8           9          10
           11          12          13          14          15          16          17          18          19          20
           21          22          23          24          25          26          27          28          29          30
 ........................................................................................................................
   1    28.53       28.53       28.52       28.50       28.48       28.45       28.42       28.38       28.33       28.28    
        28.23       28.16       28.09       28.02       27.93       27.84       27.74       27.64       27.52       27.40    
        27.26       27.12       26.96       26.79       26.61       26.40       26.18       25.94       25.66       25.34    
   2    28.53       28.53       28.52       28.50       28.48       28.45       28.42       28.38       28.33       28.28    
        28.23       28.16       28.09       28.02       27.93       27.84       27.74       27.64       27.52       27.40    
        27.26       27.12       26.96       26.79       26.61       26.40       26.18       25.94       25.66       25.34    
   3    28.53       28.53       28.52       28.50       28.48       28.45       28.42       28.38       28.33       28.28    
        28.23       28.16       28.09       28.02       27.93       27.84       27.74       27.64       27.52       27.40    
        27.26       27.12       26.96       26.79       26.61       26.40       26.18       25.94       25.66       25.34    
   4    28.53       28.53       28.52       28.50       28.48       28.45       28.42       28.38       28.33       28.28    
        28.23       28.16       28.09       28.02       27.93       27.84       27.74       27.64       27.52       27.40    
        27.26       27.12       26.96       26.79       26.61       26.40       26.18       25.94       25.66       25.34    
   5    28.53       28.53       28.52       28.50       28.48       28.45       28.42       28.38       28.33       28.28    
        28.23       28.16       28.09       28.02       27.93       27.84       27.74       27.64       27.52       27.40    
        27.26       27.12       26.96       26.79       26.61       26.40       26.18       25.94       25.66       25.34    
   6    28.53       28.53       28.52       28.50       28.48       28.45       28.42       28.38       28.33       28.28    
        28.23       28.16       28.09       28.02       27.93       27.84       27.74       27.64       27.52       27.40    
        27.26       27.12       26.96       26.79       26.61       26.40       26.18       25.94       25.66       25.34    
   7    28.53       28.53       28.52       28.50       28.48       28.45       28.42       28.38       28.33       28.28    
        28.23       28.16       28.09       28.02       27.93       27.84       27.74       27.64       27.52       27.40    
        27.26       27.12       26.96       26.79       26.61       26.40       26.18       25.94       25.66       25.34    
   8    28.53       28.53       28.52       28.50       28.48       28.45       28.42       28.38       28.33       28.28    
        28.23       28.16       28.09       28.02       27.93       27.84       27.74       27.64       27.52       27.40    
        27.26       27.12       26.96       26.79       26.61       26.40       26.18       25.94       25.66       25.34    
   9    28.53       28.53       28.52       28.50       28.48       28.45       28.42       28.38       28.33       28.28    
        28.23       28.16       28.09       28.02       27.93       27.84       27.74       27.64       27.52       27.40    
        27.26       27.12       26.96       26.79       26.61       26.40       26.18       25.94       25.66       25.34    
  10    28.53       28.53       28.52       28.50       28.48       28.45       28.42       28.38       28.33       28.28    
        28.23       28.16       28.09       28.02       27.93       27.84       27.74       27.64       27.52       27.40    
        27.26       27.12       26.96       26.79       26.61       26.40       26.18       25.94       25.66       25.34    
  11    28.53       28.53       28.52       28.50       28.48       28.45       28.42       28.38       28.33       28.28    
        28.23       28.16       28.09       28.02       27.93       27.84       27.74       27.64       27.52       27.40    
        27.26       27.12       26.96       26.79       26.61       26.40       26.18       25.94       25.66       25.34    
  12    28.53       28.53       28.52       28.50       28.48       28.45       28.42       28.38       28.33       28.28    
        28.23       28.16       28.09       28.02       27.93       27.84       27.74       27.64       27.52       27.40    
        27.26       27.12       26.96       26.79       26.61       26.40       26.18       25.94       25.66       25.34    
  13    28.53       28.53       28.52       28.50       28.48       28.45       28.42       28.38       28.33       28.28    
        28.23       28.16       28.09       28.02       27.93       27.84       27.74       27.64       27.52       27.40    
        27.26       27.12       26.96       26.79       26.61       26.40       26.18       25.94       25.66       25.34    
  14    28.53       28.53       28.52       28.50       28.48       28.45       28.42       28.38       28.33       28.28    
        28.23       28.16       28.09       28.02       27.93       27.84       27.74       27.64       27.52       27.40    
        27.26       27.12       26.96       26.79       26.61       26.40       26.18       25.94       25.66       25.34    
  15    28.53       28.53       28.52       28.50       28.48       28.45       28.42       28.38       28.33       28.28    
        28.23       28.16       28.09       28.02       27.93       27.84       27.74       27.64       27.52       27.40    
        27.26       27.12       26.96       26.79       26.61       26.40       26.18       25.94       25.66       25.34    
  16    28.53       28.53       28.52       28.50       28.48       28.45       28.42       28.38       28.33       28.28    
        28.23       28.16       28.09       28.02       27.93       27.84       27.74       27.64       27.52       27.40    
        27.26       27.12       26.96       26.79       26.61       26.40       26.18       25.94       25.66       25.34    
  17    28.53       28.53       28.52       28.50       28.48       28.45       28.42       28.38       28.33       28.28    
        28.23       28.16       28.09       28.02       27.93       27.84       27.74       27.64       27.52       27.40    
        27.26       27.12       26.96       26.79       26.61       26.40       26.18       25.94       25.66       25.34    
  18    28.53       28.53       28.52       28.50       28.48       28.45       28.42       28.38       28.33       28.28    
        28.23       28.16       28.09       28.02       27.93       27.84       27.74       27.64       27.52       27.40    
        27.26       27.12       26.96       26.79       26.61       26.40       26.18       25.94       25.66       25.34    
  19    28.53       28.53       28.52       28.50       28.48       28.45       28.42       28.38       28.33       28.28    
        28.23       28.16       28.09       28.02       27.93       27.84       27.74       27.64       27.52       27.40    
        27.26       27.12       26.96       26.79       26.61       26.40       26.18       25.94       25.66       25.34    
  20    28.53       28.53       28.52       28.50       28.48       28.45       28.42       28.38       28.33       28.28    
        28.23       28.16       28.09       28.02       27.93       27.84       27.74       27.64       27.52       27.40    
        27.26       27.12       26.96       26.79       26.61       26.40       26.18       25.94       25.66       25.34    
  21    28.53       28.53       28.52       28.50       28.48       28.45       28.42       28.38       28.33       28.28    
        28.23       28.16       28.09       28.02       27.93       27.84       27.74       27.64       27.52       27.40    
        27.26       27.12       26.96       26.79       26.61       26.40       26.18       25.94       25.66       25.34    
  22    28.53       28.53       28.52       28.50       28.48       28.45       28.42       28.38       28.33       28.28    
        28.23       28.16       28.09       28.02       27.93       27.84       27.74       27.64       27.52       27.40    
        27.26       27.12       26.96       26.79       26.61       26.40       26.18       25.94       25.66       25.34    
  23    28.53       28.53       28.52       28.50       28.48       28.45       28.42       28.38       28.33       28.28    
        28.23       28.16       28.09       28.02       27.93       27.84       27.74       27.64       27.52       27.40    
        27.26       27.12       26.96       26.79       26.61       26.40       26.18       25.94       25.66       25.34    
  24    28.53       28.53       28.52       28.50       28.48       28.45       28.42       28.38       28.33       28.28    
        28.23       28.16       28.09       28.02       27.93       27.84       27.74       27.64       27.52       27.40    
        27.26       27.12       26.96       26.79       26.61       26.40       26.18       25.94       25.66       25.34    
  25    28.53       28.53       28.52       28.50       28.48       28.45       28.42       28.38       28.33       28.28    
        28.23       28.16       28.09       28.02       27.93       27.84       27.74       27.64       27.52       27.40    
        27.26       27.12       26.96       26.79       26.61       26.40       26.18       25.94       25.66       25.34    
  26    28.53       28.53       28.52       28.50       28.48       28.45       28.42       28.38       28.33       28.28    
        28.23       28.16       28.09       28.02       27.93       27.84       27.74       27.64       27.52       27.40    
        27.26       27.12       26.96       26.79       26.61       26.40       26.18       25.94       25.66       25.34    
  27    28.53       28.53       28.52       28.50       28.48       28.45       28.42       28.38       28.33       28.28    
        28.23       28.16       28.09       28.02       27.93       27.84       27.74       27.64       27.52       27.40    
        27.26       27.12       26.96       26.79       26.61       26.40       26.18       25.94       25.66       25.34    
  28    28.53       28.53       28.52       28.50       28.48       28.45       28.42       28.38       28.33       28.28    
        28.23       28.16       28.09       28.02       27.93       27.84       27.74       27.64       27.52       27.40    
        27.26       27.12       26.96       26.79       26.61       26.40       26.18       25.94       25.66       25.34    
  29    28.53       28.53       28.52       28.50       28.48       28.45       28.42       28.38       28.33       28.28    
        28.23       28.16       28.09       28.02       27.93       27.84       27.74       27.64       27.52       27.40    
        27.26       27.12       26.96       26.79       26.61       26.40       26.18       25.94       25.66       25.34    
  30    28.53       28.53       28.52       28.50       28.48       28.45       28.42       28.38       28.33       28.28    
        28.23       28.16       28.09       28.02       27.93       27.84       27.74       27.64       27.52       27.40    
        27.26       27.12       26.96       26.79       26.61       26.40       26.18       25.94       25.66       25.34    

 HEAD WILL BE SAVED ON UNIT 1017 AT END OF TIME STEP   10, STRESS PERIOD    4


  VOLUME BUDGET FOR ENTIRE MODEL AT END OF TIME STEP   10, STRESS PERIOD   4
  ---------------------------------------------------------------------------------------------------

     CUMULATIVE VOLUME      L**3       RATES FOR THIS TIME STEP      L**3/T          PACKAGE NAME    
     ------------------                 ------------------------                     ----------------

           IN:                                      IN:
           ---                                      ---
              STO-SS =           4.3239                STO-SS =           0.1025     STORAGE         
              STO-SY =        2607.1660                STO-SY =          62.2680     STORAGE         
                 RCH =       19545.2051                   RCH =         143.0141     RCHA            
                 CHD =           0.0000                   CHD =           0.0000     CHD             

            TOTAL IN =       22156.6950              TOTAL IN =         205.3846

          OUT:                                     OUT:
          ----                                     ----
              STO-SS =           2.2683                STO-SS =           0.0000     STORAGE         
              STO-SY =        1404.1064                STO-SY =           0.0000     STORAGE         
                 RCH =           0.0000                   RCH =           0.0000     RCHA            
                 CHD =       20749.9632                   CHD =         205.3790     CHD             

           TOTAL OUT =       22156.3380             TOTAL OUT =         205.3790

            IN - OUT =           0.3570              IN - OUT =       5.5677E-03

 PERCENT DISCREPANCY =           0.00     PERCENT DISCREPANCY =           0.00




         TIME SUMMARY AT END OF TIME STEP   10 IN STRESS PERIOD    4
                    SECONDS     MINUTES      HOURS       DAYS        YEARS
                    -----------------------------------------------------------
   TIME STEP LENGTH 2.59200E+05  4320.0      72.000      3.0000     8.21355E-03
 STRESS PERIOD TIME 2.59200E+06  43200.      720.00      30.000     8.21355E-02
         TOTAL TIME 7.86240E+06 1.31040E+05  2184.0      91.000     0.24914    

 OUTPUT CONTROL FOR STRESS PERIOD 5 IS REPEATED USING SETTINGS FROM A PREVIOUS STRESS PERIOD.


 STRESS PERIOD 5 IS TRANSIENT


                 RECHARGE =  0.1232880E-02
 UBDSV1 SAVING           STO-SS ON UNIT   1016 AT TIME STEP      1, STRESS PERIOD      5
 UBDSV1 SAVING           STO-SY ON UNIT   1016 AT TIME STEP      1, STRESS PERIOD      5
 UBDSV1 SAVING     FLOW-JA-FACE ON UNIT   1016 AT TIME STEP      1, STRESS PERIOD      5
 UBDSV06 SAVING              RCH IN MODEL TEST_TRANS       PACKAGE TEST_TRANS      CONNECTED TO MODEL TEST_TRANS       PACKAGE RCHA             ON UNIT   1016 AT TIME STEP      1, STRESS PERIOD      5
 UBDSV06 SAVING              CHD IN MODEL TEST_TRANS       PACKAGE TEST_TRANS      CONNECTED TO MODEL TEST_TRANS       PACKAGE CHD              ON UNIT   1016 AT TIME STEP      1, STRESS PERIOD      5
1
  HEAD IN LAYER   1 AT END OF TIME STEP   1 IN STRESS PERIOD    5
  ---------------------------------------------------------------------------

            1           2           3           4           5           6           7           8           9          10
           11          12          13          14          15          16          17          18          19          20
           21          22          23          24          25          26          27          28          29          30
 ........................................................................................................................
   1    28.51       28.51       28.50       28.48       28.46       28.43       28.40       28.36       28.31       28.26    
        28.21       28.14       28.07       28.00       27.91       27.82       27.73       27.62       27.51       27.38    
        27.25       27.11       26.96       26.80       26.62       26.44       26.26       26.08       25.92       25.81    
   2    28.51       28.51       28.50       28.48       28.46       28.43       28.40       28.36       28.31       28.26    
        28.21       28.14       28.07       28.00       27.91       27.82       27.73       27.62       27.51       27.38    
        27.25       27.11       26.96       26.80       26.62       26.44       26.26       26.08       25.92       25.81    
   3    28.51       28.51       28.50       28.48       28.46       28.43       28.40       28.36       28.31       28.26    
        28.21       28.14       28.07       28.00       27.91       27.82       27.73       27.62       27.51       27.38    
        27.25       27.11       26.96       26.80       26.62       26.44       26.26       26.08       25.92       25.81    
   4    28.51       28.51       28.50       28.48       28.46       28.43       28.40       28.36       28.31       28.26    
        28.21       28.14       28.07       28.00       27.91       27.82       27.73       27.62       27.51       27.38    
        27.25       27.11       26.96       26.80       26.62       26.44       26.26       26.08       25.92       25.81    
   5    28.51       28.51       28.50       28.48       28.46       28.43       28.40       28.36       28.31       28.26    
        28.21       28.14       28.07       28.00       27.91       27.82       27.73       27.62       27.51       27.38    
        27.25       27.11       26.96       26.80       26.62       26.44       26.26       26.08       25.92       25.81    
   6    28.51       28.51       28.50       28.48       28.46       28.43       28.40       28.36       28.31       28.26    
        28.21       28.14       28.07       28.00       27.91       27.82       27.73       27.62       27.51       27.38    
        27.25       27.11       26.96       26.80       26.62       26.44       26.26       26.08       25.92       25.81    
   7    28.51       28.51       28.50       28.48       28.46       28.43       28.40       28.36       28.31       28.26    
        28.21       28.14       28.07       28.00       27.91       27.82       27.73       27.62       27.51       27.38    
        27.25       27.11       26.96       26.80       26.62       26.44       26.26       26.08       25.92       25.81    
   8    28.51       28.51       28.50       28.48       28.46       28.43       28.40       28.36       28.31       28.26    
        28.21       28.14       28.07       28.00       27.91       27.82       27.73       27.62       27.51       27.38    
        27.25       27.11       26.96       26.80       26.62       26.44       26.26       26.08       25.92       25.81    
   9    28.51       28.51       28.50       28.48       28.46       28.43       28.40       28.36       28.31       28.26    
        28.21       28.14       28.07       28.00       27.91       27.82       27.73       27.62       27.51       27.38    
        27.25       27.11       26.96       26.80       26.62       26.44       26.26       26.08       25.92       25.81    
  10    28.51       28.51       28.50       28.48       28.46       28.43       28.40       28.36       28.31       28.26    
        28.21       28.14       28.07       28.00       27.91       27.82       27.73       27.62       27.51       27.38    
        27.25       27.11       26.96       26.80       26.62       26.44       26.26       26.08       25.92       25.81    
  11    28.51       28.51       28.50       28.48       28.46       28.43       28.40       28.36       28.31       28.26    
        28.21       28.14       28.07       28.00       27.91       27.82       27.73       27.62       27.51       27.38    
        27.25       27.11       26.96       26.80       26.62       26.44       26.26       26.08       25.92       25.81    
  12    28.51       28.51       28.50       28.48       28.46       28.43       28.40       28.36       28.31       28.26    
        28.21       28.14       28.07       28.00       27.91       27.82       27.73       27.62       27.51       27.38    
        27.25       27.11       26.96       26.80       26.62       26.44       26.26       26.08       25.92       25.81    
  13    28.51       28.51       28.50       28.48       28.46       28.43       28.40       28.36       28.31       28.26    
        28.21       28.14       28.07       28.00       27.91       27.82       27.73       27.62       27.51       27.38    
        27.25       27.11       26.96       26.80       26.62       26.44       26.26       26.08       25.92       25.81    
  14    28.51       28.51       28.50       28.48       28.46       28.43       28.40       28.36       28.31       28.26    
        28.21       28.14       28.07       28.00       27.91       27.82       27.73       27.62       27.51       27.38    
        27.25       27.11       26.96       26.80       26.62       26.44       26.26       26.08       25.92       25.81    
  15    28.51       28.51       28.50       28.48       28.46       28.43       28.40       28.36       28.31       28.26    
        28.21       28.14       28.07       28.00       27.91       27.82       27.73       27.62       27.51       27.38    
        27.25       27.11       26.96       26.80       26.62       26.44       26.26       26.08       25.92       25.81    
  16    28.51       28.51       28.50       28.48       28.46       28.43       28.40       28.36       28.31       28.26    
        28.21       28.14       28.07       28.00       27.91       27.82       27.73       27.62       27.51       27.38    
        27.25       27.11       26.96       26.80       26.62       26.44       26.26       26.08       25.92       25.81    
  17    28.51       28.51       28.50       28.48       28.46       28.43       28.40       28.36       28.31       28.26    
        28.21       28.14       28.07       28.00       27.91       27.82       27.73       27.62       27.51       27.38    
        27.25       27.11       26.96       26.80       26.62       26.44       26.26       26.08       25.92       25.81    
  18    28.51       28.51       28.50       28.48       28.46       28.43       28.40       28.36       28.31       28.26    
        28.21       28.14       28.07       28.00       27.91       27.82       27.73       27.62       27.51       27.38    
        27.25       27.11       26.96       26.80       26.62       26.44       26.26       26.08       25.92       25.81    
  19    28.51       28.51       28.50       28.48       28.46       28.43       28.40       28.36       28.31       28.26    
        28.21       28.14       28.07       28.00       27.91       27.82       27.73       27.62       27.51       27.38    
        27.25       27.11       26.96       26.80       26.62       26.44       26.26       26.08       25.92       25.81    
  20    28.51       28.51       28.50       28.48       28.46       28.43       28.40       28.36       28.31       28.26    
        28.21       28.14       28.07       28.00       27.91       27.82       27.73       27.62       27.51       27.38    
        27.25       27.11       26.96       26.80       26.62       26.44       26.26       26.08       25.92       25.81    
  21    28.51       28.51       28.50       28.48       28.46       28.43       28.40       28.36       28.31       28.26    
        28.21       28.14       28.07       28.00       27.91       27.82       27.73       27.62       27.51       27.38    
        27.25       27.11       26.96       26.80       26.62       26.44       26.26       26.08       25.92       25.81    
  22    28.51       28.51       28.50       28.48       28.46       28.43       28.40       28.36       28.31       28.26    
        28.21       28.14       28.07       28.00       27.91       27.82       27.73       27.62       27.51       27.38    
        27.25       27.11       26.96       26.80       26.62       26.44       26.26       26.08       25.92       25.81    
  23    28.51       28.51       28.50       28.48       28.46       28.43       28.40       28.36       28.31       28.26    
        28.21       28.14       28.07       28.00       27.91       27.82       27.73       27.62       27.51       27.38    
        27.25       27.11       26.96       26.80       26.62       26.44       26.26       26.08       25.92       25.81    
  24    28.51       28.51       28.50       28.48       28.46       28.43       28.40       28.36       28.31       28.26    
        28.21       28.14       28.07       28.00       27.91       27.82       27.73       27.62       27.51       27.38    
        27.25       27.11       26.96       26.80       26.62       26.44       26.26       26.08       25.92       25.81    
  25    28.51       28.51       28.50       28.48       28.46       28.43       28.40       28.36       28.31       28.26    
        28.21       28.14       28.07       28.00       27.91       27.82       27.73       27.62       27.51       27.38    
        27.25       27.11       26.96       26.80       26.62       26.44       26.26       26.08       25.92       25.81    
  26    28.51       28.51       28.50       28.48       28.46       28.43       28.40       28.36       28.31       28.26    
        28.21       28.14       28.07       28.00       27.91       27.82       27.73       27.62       27.51       27.38    
        27.25       27.11       26.96       26.80       26.62       26.44       26.26       26.08       25.92       25.81    
  27    28.51       28.51       28.50       28.48       28.46       28.43       28.40       28.36       28.31       28.26    
        28.21       28.14       28.07       28.00       27.91       27.82       27.73       27.62       27.51       27.38    
        27.25       27.11       26.96       26.80       26.62       26.44       26.26       26.08       25.92       25.81    
  28    28.51       28.51       28.50       28.48       28.46       28.43       28.40       28.36       28.31       28.26    
        28.21       28.14       28.07       28.00       27.91       27.82       27.73       27.62       27.51       27.38    
        27.25       27.11       26.96       26.80       26.62       26.44       26.26       26.08       25.92       25.81    
  29    28.51       28.51       28.50       28.48       28.46       28.43       28.40       28.36       28.31       28.26    
        28.21       28.14       28.07       28.00       27.91       27.82       27.73       27.62       27.51       27.38    
        27.25       27.11       26.96       26.80       26.62       26.44       26.26       26.08       25.92       25.81    
  30    28.51       28.51       28.50       28.48       28.46       28.43       28.40       28.36       28.31       28.26    
        28.21       28.14       28.07       28.00       27.91       27.82       27.73       27.62       27.51       27.38    
        27.25       27.11       26.96       26.80       26.62       26.44       26.26       26.08       25.92       25.81    

 HEAD WILL BE SAVED ON UNIT 1017 AT END OF TIME STEP    1, STRESS PERIOD    5



         TIME SUMMARY AT END OF TIME STEP    1 IN STRESS PERIOD    5
                    SECONDS     MINUTES      HOURS       DAYS        YEARS
                    -----------------------------------------------------------
   TIME STEP LENGTH 2.59200E+05  4320.0      72.000      3.0000     8.21355E-03
 STRESS PERIOD TIME 2.59200E+05  4320.0      72.000      3.0000     8.21355E-03
         TOTAL TIME 8.12160E+06 1.35360E+05  2256.0      94.000     0.25736    
 UBDSV1 SAVING           STO-SS ON UNIT   1016 AT TIME STEP      2, STRESS PERIOD      5
 UBDSV1 SAVING           STO-SY ON UNIT   1016 AT TIME STEP      2, STRESS PERIOD      5
 UBDSV1 SAVING     FLOW-JA-FACE ON UNIT   1016 AT TIME STEP      2, STRESS PERIOD      5
 UBDSV06 SAVING              RCH IN MODEL TEST_TRANS       PACKAGE TEST_TRANS      CONNECTED TO MODEL TEST_TRANS       PACKAGE RCHA             ON UNIT   1016 AT TIME STEP      2, STRESS PERIOD      5
 UBDSV06 SAVING              CHD IN MODEL TEST_TRANS       PACKAGE TEST_TRANS      CONNECTED TO MODEL TEST_TRANS       PACKAGE CHD              ON UNIT   1016 AT TIME STEP      2, STRESS PERIOD      5

 HEAD WILL BE SAVED ON UNIT 1017 AT END OF TIME STEP    2, STRESS PERIOD    5
 UBDSV1 SAVING           STO-SS ON UNIT   1016 AT TIME STEP      3, STRESS PERIOD      5
 UBDSV1 SAVING           STO-SY ON UNIT   1016 AT TIME STEP      3, STRESS PERIOD      5
 UBDSV1 SAVING     FLOW-JA-FACE ON UNIT   1016 AT TIME STEP      3, STRESS PERIOD      5
 UBDSV06 SAVING              RCH IN MODEL TEST_TRANS       PACKAGE TEST_TRANS      CONNECTED TO MODEL TEST_TRANS       PACKAGE RCHA             ON UNIT   1016 AT TIME STEP      3, STRESS PERIOD      5
 UBDSV06 SAVING              CHD IN MODEL TEST_TRANS       PACKAGE TEST_TRANS      CONNECTED TO MODEL TEST_TRANS       PACKAGE CHD              ON UNIT   1016 AT TIME STEP      3, STRESS PERIOD      5

 HEAD WILL BE SAVED ON UNIT 1017 AT END OF TIME STEP    3, STRESS PERIOD    5
 UBDSV1 SAVING           STO-SS ON UNIT   1016 AT TIME STEP      4, STRESS PERIOD      5
 UBDSV1 SAVING           STO-SY ON UNIT   1016 AT TIME STEP      4, STRESS PERIOD      5
 UBDSV1 SAVING     FLOW-JA-FACE ON UNIT   1016 AT TIME STEP      4, STRESS PERIOD      5
 UBDSV06 SAVING              RCH IN MODEL TEST_TRANS       PACKAGE TEST_TRANS      CONNECTED TO MODEL TEST_TRANS       PACKAGE RCHA             ON UNIT   1016 AT TIME STEP      4, STRESS PERIOD      5
 UBDSV06 SAVING              CHD IN MODEL TEST_TRANS       PACKAGE TEST_TRANS      CONNECTED TO MODEL TEST_TRANS       PACKAGE CHD              ON UNIT   1016 AT TIME STEP      4, STRESS PERIOD      5

 HEAD WILL BE SAVED ON UNIT 1017 AT END OF TIME STEP    4, STRESS PERIOD    5
 UBDSV1 SAVING           STO-SS ON UNIT   1016 AT TIME STEP      5, STRESS PERIOD      5
 UBDSV1 SAVING           STO-SY ON UNIT   1016 AT TIME STEP      5, STRESS PERIOD      5
 UBDSV1 SAVING     FLOW-JA-FACE ON UNIT   1016 AT TIME STEP      5, STRESS PERIOD      5
 UBDSV06 SAVING              RCH IN MODEL TEST_TRANS       PACKAGE TEST_TRANS      CONNECTED TO MODEL TEST_TRANS       PACKAGE RCHA             ON UNIT   1016 AT TIME STEP      5, STRESS PERIOD      5
 UBDSV06 SAVING              CHD IN MODEL TEST_TRANS       PACKAGE TEST_TRANS      CONNECTED TO MODEL TEST_TRANS       PACKAGE CHD              ON UNIT   1016 AT TIME STEP      5, STRESS PERIOD      5

 HEAD WILL BE SAVED ON UNIT 1017 AT END OF TIME STEP    5, STRESS PERIOD    5
 UBDSV1 SAVING           STO-SS ON UNIT   1016 AT TIME STEP      6, STRESS PERIOD      5
 UBDSV1 SAVING           STO-SY ON UNIT   1016 AT TIME STEP      6, STRESS PERIOD      5
 UBDSV1 SAVING     FLOW-JA-FACE ON UNIT   1016 AT TIME STEP      6, STRESS PERIOD      5
 UBDSV06 SAVING              RCH IN MODEL TEST_TRANS       PACKAGE TEST_TRANS      CONNECTED TO MODEL TEST_TRANS       PACKAGE RCHA             ON UNIT   1016 AT TIME STEP      6, STRESS PERIOD      5
 UBDSV06 SAVING              CHD IN MODEL TEST_TRANS       PACKAGE TEST_TRANS      CONNECTED TO MODEL TEST_TRANS       PACKAGE CHD              ON UNIT   1016 AT TIME STEP      6, STRESS PERIOD      5

 HEAD WILL BE SAVED ON UNIT 1017 AT END OF TIME STEP    6, STRESS PERIOD    5
 UBDSV1 SAVING           STO-SS ON UNIT   1016 AT TIME STEP      7, STRESS PERIOD      5
 UBDSV1 SAVING           STO-SY ON UNIT   1016 AT TIME STEP      7, STRESS PERIOD      5
 UBDSV1 SAVING     FLOW-JA-FACE ON UNIT   1016 AT TIME STEP      7, STRESS PERIOD      5
 UBDSV06 SAVING              RCH IN MODEL TEST_TRANS       PACKAGE TEST_TRANS      CONNECTED TO MODEL TEST_TRANS       PACKAGE RCHA             ON UNIT   1016 AT TIME STEP      7, STRESS PERIOD      5
 UBDSV06 SAVING              CHD IN MODEL TEST_TRANS       PACKAGE TEST_TRANS      CONNECTED TO MODEL TEST_TRANS       PACKAGE CHD              ON UNIT   1016 AT TIME STEP      7, STRESS PERIOD      5

 HEAD WILL BE SAVED ON UNIT 1017 AT END OF TIME STEP    7, STRESS PERIOD    5
 UBDSV1 SAVING           STO-SS ON UNIT   1016 AT TIME STEP      8, STRESS PERIOD      5
 UBDSV1 SAVING           STO-SY ON UNIT   1016 AT TIME STEP      8, STRESS PERIOD      5
 UBDSV1 SAVING     FLOW-JA-FACE ON UNIT   1016 AT TIME STEP      8, STRESS PERIOD      5
 UBDSV06 SAVING              RCH IN MODEL TEST_TRANS       PACKAGE TEST_TRANS      CONNECTED TO MODEL TEST_TRANS       PACKAGE RCHA             ON UNIT   1016 AT TIME STEP      8, STRESS PERIOD      5
 UBDSV06 SAVING              CHD IN MODEL TEST_TRANS       PACKAGE TEST_TRANS      CONNECTED TO MODEL TEST_TRANS       PACKAGE CHD              ON UNIT   1016 AT TIME STEP      8, STRESS PERIOD      5

 HEAD WILL BE SAVED ON UNIT 1017 AT END OF TIME STEP    8, STRESS PERIOD    5
 UBDSV1 SAVING           STO-SS ON UNIT   1016 AT TIME STEP      9, STRESS PERIOD      5
 UBDSV1 SAVING           STO-SY ON UNIT   1016 AT TIME STEP      9, STRESS PERIOD      5
 UBDSV1 SAVING     FLOW-JA-FACE ON UNIT   1016 AT TIME STEP      9, STRESS PERIOD      5
 UBDSV06 SAVING              RCH IN MODEL TEST_TRANS       PACKAGE TEST_TRANS      CONNECTED TO MODEL TEST_TRANS       PACKAGE RCHA             ON UNIT   1016 AT TIME STEP      9, STRESS PERIOD      5
 UBDSV06 SAVING              CHD IN MODEL TEST_TRANS       PACKAGE TEST_TRANS      CONNECTED TO MODEL TEST_TRANS       PACKAGE CHD              ON UNIT   1016 AT TIME STEP      9, STRESS PERIOD      5

 HEAD WILL BE SAVED ON UNIT 1017 AT END OF TIME STEP    9, STRESS PERIOD    5
 UBDSV1 SAVING           STO-SS ON UNIT   1016 AT TIME STEP     10, STRESS PERIOD      5
 UBDSV1 SAVING           STO-SY ON UNIT   1016 AT TIME STEP     10, STRESS PERIOD      5
 UBDSV1 SAVING     FLOW-JA-FACE ON UNIT   1016 AT TIME STEP     10, STRESS PERIOD      5
 UBDSV06 SAVING              RCH IN MODEL TEST_TRANS       PACKAGE TEST_TRANS      CONNECTED TO MODEL TEST_TRANS       PACKAGE RCHA             ON UNIT   1016 AT TIME STEP     10, STRESS PERIOD      5
 UBDSV06 SAVING              CHD IN MODEL TEST_TRANS       PACKAGE TEST_TRANS      CONNECTED TO MODEL TEST_TRANS       PACKAGE CHD              ON UNIT   1016 AT TIME STEP     10, STRESS PERIOD      5
1
  HEAD IN LAYER   1 AT END OF TIME STEP  10 IN STRESS PERIOD    5
  ---------------------------------------------------------------------------

            1           2           3           4           5           6           7           8           9          10
           11          12          13          14          15          16          17          18          19          20
           21          22          23          24          25          26          27          28          29          30
 ........................................................................................................................
   1    28.35       28.34       28.33       28.32       28.30       28.27       28.24       28.20       28.16       28.12    
        28.07       28.01       27.95       27.88       27.80       27.72       27.64       27.55       27.45       27.34    
        27.23       27.11       26.99       26.85       26.71       26.56       26.39       26.22       26.02       25.81    
   2    28.35       28.34       28.33       28.32       28.30       28.27       28.24       28.20       28.16       28.12    
        28.07       28.01       27.95       27.88       27.80       27.72       27.64       27.55       27.45       27.34    
        27.23       27.11       26.99       26.85       26.71       26.56       26.39       26.22       26.02       25.81    
   3    28.35       28.34       28.33       28.32       28.30       28.27       28.24       28.20       28.16       28.12    
        28.07       28.01       27.95       27.88       27.80       27.72       27.64       27.55       27.45       27.34    
        27.23       27.11       26.99       26.85       26.71       26.56       26.39       26.22       26.02       25.81    
   4    28.35       28.34       28.33       28.32       28.30       28.27       28.24       28.20       28.16       28.12    
        28.07       28.01       27.95       27.88       27.80       27.72       27.64       27.55       27.45       27.34    
        27.23       27.11       26.99       26.85       26.71       26.56       26.39       26.22       26.02       25.81    
   5    28.35       28.34       28.33       28.32       28.30       28.27       28.24       28.20       28.16       28.12    
        28.07       28.01       27.95       27.88       27.80       27.72       27.64       27.55       27.45       27.34    
        27.23       27.11       26.99       26.85       26.71       26.56       26.39       26.22       26.02       25.81    
   6    28.35       28.34       28.33       28.32       28.30       28.27       28.24       28.20       28.16       28.12    
        28.07       28.01       27.95       27.88       27.80       27.72       27.64       27.55       27.45       27.34    
        27.23       27.11       26.99       26.85       26.71       26.56       26.39       26.22       26.02       25.81    
   7    28.35       28.34       28.33       28.32       28.30       28.27       28.24       28.20       28.16       28.12    
        28.07       28.01       27.95       27.88       27.80       27.72       27.64       27.55       27.45       27.34    
        27.23       27.11       26.99       26.85       26.71       26.56       26.39       26.22       26.02       25.81    
   8    28.35       28.34       28.33       28.32       28.30       28.27       28.24       28.20       28.16       28.12    
        28.07       28.01       27.95       27.88       27.80       27.72       27.64       27.55       27.45       27.34    
        27.23       27.11       26.99       26.85       26.71       26.56       26.39       26.22       26.02       25.81    
   9    28.35       28.34       28.33       28.32       28.30       28.27       28.24       28.20       28.16       28.12    
        28.07       28.01       27.95       27.88       27.80       27.72       27.64       27.55       27.45       27.34    
        27.23       27.11       26.99       26.85       26.71       26.56       26.39       26.22       26.02       25.81    
  10    28.35       28.34       28.33       28.32       28.30       28.27       28.24       28.20       28.16       28.12    
        28.07       28.01       27.95       27.88       27.80       27.72       27.64       27.55       27.45       27.34    
        27.23       27.11       26.99       26.85       26.71       26.56       26.39       26.22       26.02       25.81    
  11    28.35       28.34       28.33       28.32       28.30       28.27       28.24       28.20       28.16       28.12    
        28.07       28.01       27.95       27.88       27.80       27.72       27.64       27.55       27.45       27.34    
        27.23       27.11       26.99       26.85       26.71       26.56       26.39       26.22       26.02       25.81    
  12    28.35       28.34       28.33       28.32       28.30       28.27       28.24       28.20       28.16       28.12    
        28.07       28.01       27.95       27.88       27.80       27.72       27.64       27.55       27.45       27.34    
        27.23       27.11       26.99       26.85       26.71       26.56       26.39       26.22       26.02       25.81    
  13    28.35       28.34       28.33       28.32       28.30       28.27       28.24       28.20       28.16       28.12    
        28.07       28.01       27.95       27.88       27.80       27.72       27.64       27.55       27.45       27.34    
        27.23       27.11       26.99       26.85       26.71       26.56       26.39       26.22       26.02       25.81    
  14    28.35       28.34       28.33       28.32       28.30       28.27       28.24       28.20       28.16       28.12    
        28.07       28.01       27.95       27.88       27.80       27.72       27.64       27.55       27.45       27.34    
        27.23       27.11       26.99       26.85       26.71       26.56       26.39       26.22       26.02       25.81    
  15    28.35       28.34       28.33       28.32       28.30       28.27       28.24       28.20       28.16       28.12    
        28.07       28.01       27.95       27.88       27.80       27.72       27.64       27.55       27.45       27.34    
        27.23       27.11       26.99       26.85       26.71       26.56       26.39       26.22       26.02       25.81    
  16    28.35       28.34       28.33       28.32       28.30       28.27       28.24       28.20       28.16       28.12    
        28.07       28.01       27.95       27.88       27.80       27.72       27.64       27.55       27.45       27.34    
        27.23       27.11       26.99       26.85       26.71       26.56       26.39       26.22       26.02       25.81    
  17    28.35       28.34       28.33       28.32       28.30       28.27       28.24       28.20       28.16       28.12    
        28.07       28.01       27.95       27.88       27.80       27.72       27.64       27.55       27.45       27.34    
        27.23       27.11       26.99       26.85       26.71       26.56       26.39       26.22       26.02       25.81    
  18    28.35       28.34       28.33       28.32       28.30       28.27       28.24       28.20       28.16       28.12    
        28.07       28.01       27.95       27.88       27.80       27.72       27.64       27.55       27.45       27.34    
        27.23       27.11       26.99       26.85       26.71       26.56       26.39       26.22       26.02       25.81    
  19    28.35       28.34       28.33       28.32       28.30       28.27       28.24       28.20       28.16       28.12    
        28.07       28.01       27.95       27.88       27.80       27.72       27.64       27.55       27.45       27.34    
        27.23       27.11       26.99       26.85       26.71       26.56       26.39       26.22       26.02       25.81    
  20    28.35       28.34       28.33       28.32       28.30       28.27       28.24       28.20       28.16       28.12    
        28.07       28.01       27.95       27.88       27.80       27.72       27.64       27.55       27.45       27.34    
        27.23       27.11       26.99       26.85       26.71       26.56       26.39       26.22       26.02       25.81    
  21    28.35       28.34       28.33       28.32       28.30       28.27       28.24       28.20       28.16       28.12    
        28.07       28.01       27.95       27.88       27.80       27.72       27.64       27.55       27.45       27.34    
        27.23       27.11       26.99       26.85       26.71       26.56       26.39       26.22       26.02       25.81    
  22    28.35       28.34       28.33       28.32       28.30       28.27       28.24       28.20       28.16       28.12    
        28.07       28.01       27.95       27.88       27.80       27.72       27.64       27.55       27.45       27.34    
        27.23       27.11       26.99       26.85       26.71       26.56       26.39       26.22       26.02       25.81    
  23    28.35       28.34       28.33       28.32       28.30       28.27       28.24       28.20       28.16       28.12    
        28.07       28.01       27.95       27.88       27.80       27.72       27.64       27.55       27.45       27.34    
        27.23       27.11       26.99       26.85       26.71       26.56       26.39       26.22       26.02       25.81    
  24    28.35       28.34       28.33       28.32       28.30       28.27       28.24       28.20       28.16       28.12    
        28.07       28.01       27.95       27.88       27.80       27.72       27.64       27.55       27.45       27.34    
        27.23       27.11       26.99       26.85       26.71       26.56       26.39       26.22       26.02       25.81    
  25    28.35       28.34       28.33       28.32       28.30       28.27       28.24       28.20       28.16       28.12    
        28.07       28.01       27.95       27.88       27.80       27.72       27.64       27.55       27.45       27.34    
        27.23       27.11       26.99       26.85       26.71       26.56       26.39       26.22       26.02       25.81    
  26    28.35       28.34       28.33       28.32       28.30       28.27       28.24       28.20       28.16       28.12    
        28.07       28.01       27.95       27.88       27.80       27.72       27.64       27.55       27.45       27.34    
        27.23       27.11       26.99       26.85       26.71       26.56       26.39       26.22       26.02       25.81    
  27    28.35       28.34       28.33       28.32       28.30       28.27       28.24       28.20       28.16       28.12    
        28.07       28.01       27.95       27.88       27.80       27.72       27.64       27.55       27.45       27.34    
        27.23       27.11       26.99       26.85       26.71       26.56       26.39       26.22       26.02       25.81    
  28    28.35       28.34       28.33       28.32       28.30       28.27       28.24       28.20       28.16       28.12    
        28.07       28.01       27.95       27.88       27.80       27.72       27.64       27.55       27.45       27.34    
        27.23       27.11       26.99       26.85       26.71       26.56       26.39       26.22       26.02       25.81    
  29    28.35       28.34       28.33       28.32       28.30       28.27       28.24       28.20       28.16       28.12    
        28.07       28.01       27.95       27.88       27.80       27.72       27.64       27.55       27.45       27.34    
        27.23       27.11       26.99       26.85       26.71       26.56       26.39       26.22       26.02       25.81    
  30    28.35       28.34       28.33       28.32       28.30       28.27       28.24       28.20       28.16       28.12    
        28.07       28.01       27.95       27.88       27.80       27.72       27.64       27.55       27.45       27.34    
        27.23       27.11       26.99       26.85       26.71       26.56       26.39       26.22       26.02       25.81    

 HEAD WILL BE SAVED ON UNIT 1017 AT END OF TIME STEP   10, STRESS PERIOD    5


  VOLUME BUDGET FOR ENTIRE MODEL AT END OF TIME STEP   10, STRESS PERIOD   5
  ---------------------------------------------------------------------------------------------------

     CUMULATIVE VOLUME      L**3       RATES FOR THIS TIME STEP      L**3/T          PACKAGE NAME    
     ------------------                 ------------------------                     ----------------

           IN:                                      IN:
           ---                                      ---
              STO-SS =           7.3252                STO-SS =       8.5380E-02     STORAGE         
              STO-SY =        4409.7156                STO-SY =          51.5376     STORAGE         
                 RCH =       22763.0219                   RCH =         107.2606     RCHA            
                 CHD =           0.0000                   CHD =           0.0000     CHD             

            TOTAL IN =       27180.0627              TOTAL IN =         158.8836

          OUT:                                     OUT:
          ----                                     ----
              STO-SS =           3.3513                STO-SS =       2.6989E-04     STORAGE         
              STO-SY =        2139.9769                STO-SY =           0.1831     STORAGE         
                 RCH =           0.0000                   RCH =           0.0000     RCHA            
                 CHD =       25036.3361                   CHD =         158.6980     CHD             

           TOTAL OUT =       27179.6643             TOTAL OUT =         158.8814

            IN - OUT =           0.3984              IN - OUT =       2.2299E-03

 PERCENT DISCREPANCY =           0.00     PERCENT DISCREPANCY =           0.00




         TIME SUMMARY AT END OF TIME STEP   10 IN STRESS PERIOD    5
                    SECONDS     MINUTES      HOURS       DAYS        YEARS
                    -----------------------------------------------------------
   TIME STEP LENGTH 2.59200E+05  4320.0      72.000      3.0000     8.21355E-03
 STRESS PERIOD TIME 2.59200E+06  43200.      720.00      30.000     8.21355E-02
         TOTAL TIME 1.04544E+07 1.74240E+05  2904.0      121.00     0.33128    

 OUTPUT CONTROL FOR STRESS PERIOD 6 IS REPEATED USING SETTINGS FROM A PREVIOUS STRESS PERIOD.


 STRESS PERIOD 6 IS TRANSIENT


                 RECHARGE =  0.8219178E-03
 UBDSV1 SAVING           STO-SS ON UNIT   1016 AT TIME STEP      1, STRESS PERIOD      6
 UBDSV1 SAVING           STO-SY ON UNIT   1016 AT TIME STEP      1, STRESS PERIOD      6
 UBDSV1 SAVING     FLOW-JA-FACE ON UNIT   1016 AT TIME STEP      1, STRESS PERIOD      6
 UBDSV06 SAVING              RCH IN MODEL TEST_TRANS       PACKAGE TEST_TRANS      CONNECTED TO MODEL TEST_TRANS       PACKAGE RCHA             ON UNIT   1016 AT TIME STEP      1, STRESS PERIOD      6
 UBDSV06 SAVING              CHD IN MODEL TEST_TRANS       PACKAGE TEST_TRANS      CONNECTED TO MODEL TEST_TRANS       PACKAGE CHD              ON UNIT   1016 AT TIME STEP      1, STRESS PERIOD      6
1
  HEAD IN LAYER   1 AT END OF TIME STEP   1 IN STRESS PERIOD    6
  ---------------------------------------------------------------------------

            1           2           3           4           5           6           7           8           9          10
           11          12          13          14          15          16          17          18          19          20
           21          22          23          24          25          26          27          28          29          30
 ........................................................................................................................
   1    28.32       28.32       28.31       28.29       28.27       28.25       28.22       28.18       28.14       28.10    
        28.05       27.99       27.93       27.86       27.79       27.71       27.62       27.53       27.44       27.33    
        27.22       27.11       26.98       26.85       26.71       26.56       26.40       26.23       26.05       25.87    
   2    28.32       28.32       28.31       28.29       28.27       28.25       28.22       28.18       28.14       28.10    
        28.05       27.99       27.93       27.86       27.79       27.71       27.62       27.53       27.44       27.33    
        27.22       27.11       26.98       26.85       26.71       26.56       26.40       26.23       26.05       25.87    
   3    28.32       28.32       28.31       28.29       28.27       28.25       28.22       28.18       28.14       28.10    
        28.05       27.99       27.93       27.86       27.79       27.71       27.62       27.53       27.44       27.33    
        27.22       27.11       26.98       26.85       26.71       26.56       26.40       26.23       26.05       25.87    
   4    28.32       28.32       28.31       28.29       28.27       28.25       28.22       28.18       28.14       28.10    
        28.05       27.99       27.93       27.86       27.79       27.71       27.62       27.53       27.44       27.33    
        27.22       27.11       26.98       26.85       26.71       26.56       26.40       26.23       26.05       25.87    
   5    28.32       28.32       28.31       28.29       28.27       28.25       28.22       28.18       28.14       28.10    
        28.05       27.99       27.93       27.86       27.79       27.71       27.62       27.53       27.44       27.33    
        27.22       27.11       26.98       26.85       26.71       26.56       26.40       26.23       26.05       25.87    
   6    28.32       28.32       28.31       28.29       28.27       28.25       28.22       28.18       28.14       28.10    
        28.05       27.99       27.93       27.86       27.79       27.71       27.62       27.53       27.44       27.33    
        27.22       27.11       26.98       26.85       26.71       26.56       26.40       26.23       26.05       25.87    
   7    28.32       28.32       28.31       28.29       28.27       28.25       28.22       28.18       28.14       28.10    
        28.05       27.99       27.93       27.86       27.79       27.71       27.62       27.53       27.44       27.33    
        27.22       27.11       26.98       26.85       26.71       26.56       26.40       26.23       26.05       25.87    
   8    28.32       28.32       28.31       28.29       28.27       28.25       28.22       28.18       28.14       28.10    
        28.05       27.99       27.93       27.86       27.79       27.71       27.62       27.53       27.44       27.33    
        27.22       27.11       26.98       26.85       26.71       26.56       26.40       26.23       26.05       25.87    
   9    28.32       28.32       28.31       28.29       28.27       28.25       28.22       28.18       28.14       28.10    
        28.05       27.99       27.93       27.86       27.79       27.71       27.62       27.53       27.44       27.33    
        27.22       27.11       26.98       26.85       26.71       26.56       26.40       26.23       26.05       25.87    
  10    28.32       28.32       28.31       28.29       28.27       28.25       28.22       28.18       28.14       28.10    
        28.05       27.99       27.93       27.86       27.79       27.71       27.62       27.53       27.44       27.33    
        27.22       27.11       26.98       26.85       26.71       26.56       26.40       26.23       26.05       25.87    
  11    28.32       28.32       28.31       28.29       28.27       28.25       28.22       28.18       28.14       28.10    
        28.05       27.99       27.93       27.86       27.79       27.71       27.62       27.53       27.44       27.33    
        27.22       27.11       26.98       26.85       26.71       26.56       26.40       26.23       26.05       25.87    
  12    28.32       28.32       28.31       28.29       28.27       28.25       28.22       28.18       28.14       28.10    
        28.05       27.99       27.93       27.86       27.79       27.71       27.62       27.53       27.44       27.33    
        27.22       27.11       26.98       26.85       26.71       26.56       26.40       26.23       26.05       25.87    
  13    28.32       28.32       28.31       28.29       28.27       28.25       28.22       28.18       28.14       28.10    
        28.05       27.99       27.93       27.86       27.79       27.71       27.62       27.53       27.44       27.33    
        27.22       27.11       26.98       26.85       26.71       26.56       26.40       26.23       26.05       25.87    
  14    28.32       28.32       28.31       28.29       28.27       28.25       28.22       28.18       28.14       28.10    
        28.05       27.99       27.93       27.86       27.79       27.71       27.62       27.53       27.44       27.33    
        27.22       27.11       26.98       26.85       26.71       26.56       26.40       26.23       26.05       25.87    
  15    28.32       28.32       28.31       28.29       28.27       28.25       28.22       28.18       28.14       28.10    
        28.05       27.99       27.93       27.86       27.79       27.71       27.62       27.53       27.44       27.33    
        27.22       27.11       26.98       26.85       26.71       26.56       26.40       26.23       26.05       25.87    
  16    28.32       28.32       28.31       28.29       28.27       28.25       28.22       28.18       28.14       28.10    
        28.05       27.99       27.93       27.86       27.79       27.71       27.62       27.53       27.44       27.33    
        27.22       27.11       26.98       26.85       26.71       26.56       26.40       26.23       26.05       25.87    
  17    28.32       28.32       28.31       28.29       28.27       28.25       28.22       28.18       28.14       28.10    
        28.05       27.99       27.93       27.86       27.79       27.71       27.62       27.53       27.44       27.33    
        27.22       27.11       26.98       26.85       26.71       26.56       26.40       26.23       26.05       25.87    
  18    28.32       28.32       28.31       28.29       28.27       28.25       28.22       28.18       28.14       28.10    
        28.05       27.99       27.93       27.86       27.79       27.71       27.62       27.53       27.44       27.33    
        27.22       27.11       26.98       26.85       26.71       26.56       26.40       26.23       26.05       25.87    
  19    28.32       28.32       28.31       28.29       28.27       28.25       28.22       28.18       28.14       28.10    
        28.05       27.99       27.93       27.86       27.79       27.71       27.62       27.53       27.44       27.33    
        27.22       27.11       26.98       26.85       26.71       26.56       26.40       26.23       26.05       25.87    
  20    28.32       28.32       28.31       28.29       28.27       28.25       28.22       28.18       28.14       28.10    
        28.05       27.99       27.93       27.86       27.79       27.71       27.62       27.53       27.44       27.33    
        27.22       27.11       26.98       26.85       26.71       26.56       26.40       26.23       26.05       25.87    
  21    28.32       28.32       28.31       28.29       28.27       28.25       28.22       28.18       28.14       28.10    
        28.05       27.99       27.93       27.86       27.79       27.71       27.62       27.53       27.44       27.33    
        27.22       27.11       26.98       26.85       26.71       26.56       26.40       26.23       26.05       25.87    
  22    28.32       28.32       28.31       28.29       28.27       28.25       28.22       28.18       28.14       28.10    
        28.05       27.99       27.93       27.86       27.79       27.71       27.62       27.53       27.44       27.33    
        27.22       27.11       26.98       26.85       26.71       26.56       26.40       26.23       26.05       25.87    
  23    28.32       28.32       28.31       28.29       28.27       28.25       28.22       28.18       28.14       28.10    
        28.05       27.99       27.93       27.86       27.79       27.71       27.62       27.53       27.44       27.33    
        27.22       27.11       26.98       26.85       26.71       26.56       26.40       26.23       26.05       25.87    
  24    28.32       28.32       28.31       28.29       28.27       28.25       28.22       28.18       28.14       28.10    
        28.05       27.99       27.93       27.86       27.79       27.71       27.62       27.53       27.44       27.33    
        27.22       27.11       26.98       26.85       26.71       26.56       26.40       26.23       26.05       25.87    
  25    28.32       28.32       28.31       28.29       28.27       28.25       28.22       28.18       28.14       28.10    
        28.05       27.99       27.93       27.86       27.79       27.71       27.62       27.53       27.44       27.33    
        27.22       27.11       26.98       26.85       26.71       26.56       26.40       26.23       26.05       25.87    
  26    28.32       28.32       28.31       28.29       28.27       28.25       28.22       28.18       28.14       28.10    
        28.05       27.99       27.93       27.86       27.79       27.71       27.62       27.53       27.44       27.33    
        27.22       27.11       26.98       26.85       26.71       26.56       26.40       26.23       26.05       25.87    
  27    28.32       28.32       28.31       28.29       28.27       28.25       28.22       28.18       28.14       28.10    
        28.05       27.99       27.93       27.86       27.79       27.71       27.62       27.53       27.44       27.33    
        27.22       27.11       26.98       26.85       26.71       26.56       26.40       26.23       26.05       25.87    
  28    28.32       28.32       28.31       28.29       28.27       28.25       28.22       28.18       28.14       28.10    
        28.05       27.99       27.93       27.86       27.79       27.71       27.62       27.53       27.44       27.33    
        27.22       27.11       26.98       26.85       26.71       26.56       26.40       26.23       26.05       25.87    
  29    28.32       28.32       28.31       28.29       28.27       28.25       28.22       28.18       28.14       28.10    
        28.05       27.99       27.93       27.86       27.79       27.71       27.62       27.53       27.44       27.33    
        27.22       27.11       26.98       26.85       26.71       26.56       26.40       26.23       26.05       25.87    
  30    28.32       28.32       28.31       28.29       28.27       28.25       28.22       28.18       28.14       28.10    
        28.05       27.99       27.93       27.86       27.79       27.71       27.62       27.53       27.44       27.33    
        27.22       27.11       26.98       26.85       26.71       26.56       26.40       26.23       26.05       25.87    

 HEAD WILL BE SAVED ON UNIT 1017 AT END OF TIME STEP    1, STRESS PERIOD    6



         TIME SUMMARY AT END OF TIME STEP    1 IN STRESS PERIOD    6
                    SECONDS     MINUTES      HOURS       DAYS        YEARS
                    -----------------------------------------------------------
   TIME STEP LENGTH 2.59200E+05  4320.0      72.000      3.0000     8.21355E-03
 STRESS PERIOD TIME 2.59200E+05  4320.0      72.000      3.0000     8.21355E-03
         TOTAL TIME 1.07136E+07 1.78560E+05  2976.0      124.00     0.33949    
 UBDSV1 SAVING           STO-SS ON UNIT   1016 AT TIME STEP      2, STRESS PERIOD      6
 UBDSV1 SAVING           STO-SY ON UNIT   1016 AT TIME STEP      2, STRESS PERIOD      6
 UBDSV1 SAVING     FLOW-JA-FACE ON UNIT   1016 AT TIME STEP      2, STRESS PERIOD      6
 UBDSV06 SAVING              RCH IN MODEL TEST_TRANS       PACKAGE TEST_TRANS      CONNECTED TO MODEL TEST_TRANS       PACKAGE RCHA             ON UNIT   1016 AT TIME STEP      2, STRESS PERIOD      6
 UBDSV06 SAVING              CHD IN MODEL TEST_TRANS       PACKAGE TEST_TRANS      CONNECTED TO MODEL TEST_TRANS       PACKAGE CHD              ON UNIT   1016 AT TIME STEP      2, STRESS PERIOD      6

 HEAD WILL BE SAVED ON UNIT 1017 AT END OF TIME STEP    2, STRESS PERIOD    6
 UBDSV1 SAVING           STO-SS ON UNIT   1016 AT TIME STEP      3, STRESS PERIOD      6
 UBDSV1 SAVING           STO-SY ON UNIT   1016 AT TIME STEP      3, STRESS PERIOD      6
 UBDSV1 SAVING     FLOW-JA-FACE ON UNIT   1016 AT TIME STEP      3, STRESS PERIOD      6
 UBDSV06 SAVING              RCH IN MODEL TEST_TRANS       PACKAGE TEST_TRANS      CONNECTED TO MODEL TEST_TRANS       PACKAGE RCHA             ON UNIT   1016 AT TIME STEP      3, STRESS PERIOD      6
 UBDSV06 SAVING              CHD IN MODEL TEST_TRANS       PACKAGE TEST_TRANS      CONNECTED TO MODEL TEST_TRANS       PACKAGE CHD              ON UNIT   1016 AT TIME STEP      3, STRESS PERIOD      6

 HEAD WILL BE SAVED ON UNIT 1017 AT END OF TIME STEP    3, STRESS PERIOD    6
 UBDSV1 SAVING           STO-SS ON UNIT   1016 AT TIME STEP      4, STRESS PERIOD      6
 UBDSV1 SAVING           STO-SY ON UNIT   1016 AT TIME STEP      4, STRESS PERIOD      6
 UBDSV1 SAVING     FLOW-JA-FACE ON UNIT   1016 AT TIME STEP      4, STRESS PERIOD      6
 UBDSV06 SAVING              RCH IN MODEL TEST_TRANS       PACKAGE TEST_TRANS      CONNECTED TO MODEL TEST_TRANS       PACKAGE RCHA             ON UNIT   1016 AT TIME STEP      4, STRESS PERIOD      6
 UBDSV06 SAVING              CHD IN MODEL TEST_TRANS       PACKAGE TEST_TRANS      CONNECTED TO MODEL TEST_TRANS       PACKAGE CHD              ON UNIT   1016 AT TIME STEP      4, STRESS PERIOD      6

 HEAD WILL BE SAVED ON UNIT 1017 AT END OF TIME STEP    4, STRESS PERIOD    6
 UBDSV1 SAVING           STO-SS ON UNIT   1016 AT TIME STEP      5, STRESS PERIOD      6
 UBDSV1 SAVING           STO-SY ON UNIT   1016 AT TIME STEP      5, STRESS PERIOD      6
 UBDSV1 SAVING     FLOW-JA-FACE ON UNIT   1016 AT TIME STEP      5, STRESS PERIOD      6
 UBDSV06 SAVING              RCH IN MODEL TEST_TRANS       PACKAGE TEST_TRANS      CONNECTED TO MODEL TEST_TRANS       PACKAGE RCHA             ON UNIT   1016 AT TIME STEP      5, STRESS PERIOD      6
 UBDSV06 SAVING              CHD IN MODEL TEST_TRANS       PACKAGE TEST_TRANS      CONNECTED TO MODEL TEST_TRANS       PACKAGE CHD              ON UNIT   1016 AT TIME STEP      5, STRESS PERIOD      6

 HEAD WILL BE SAVED ON UNIT 1017 AT END OF TIME STEP    5, STRESS PERIOD    6
 UBDSV1 SAVING           STO-SS ON UNIT   1016 AT TIME STEP      6, STRESS PERIOD      6
 UBDSV1 SAVING           STO-SY ON UNIT   1016 AT TIME STEP      6, STRESS PERIOD      6
 UBDSV1 SAVING     FLOW-JA-FACE ON UNIT   1016 AT TIME STEP      6, STRESS PERIOD      6
 UBDSV06 SAVING              RCH IN MODEL TEST_TRANS       PACKAGE TEST_TRANS      CONNECTED TO MODEL TEST_TRANS       PACKAGE RCHA             ON UNIT   1016 AT TIME STEP      6, STRESS PERIOD      6
 UBDSV06 SAVING              CHD IN MODEL TEST_TRANS       PACKAGE TEST_TRANS      CONNECTED TO MODEL TEST_TRANS       PACKAGE CHD              ON UNIT   1016 AT TIME STEP      6, STRESS PERIOD      6

 HEAD WILL BE SAVED ON UNIT 1017 AT END OF TIME STEP    6, STRESS PERIOD    6
 UBDSV1 SAVING           STO-SS ON UNIT   1016 AT TIME STEP      7, STRESS PERIOD      6
 UBDSV1 SAVING           STO-SY ON UNIT   1016 AT TIME STEP      7, STRESS PERIOD      6
 UBDSV1 SAVING     FLOW-JA-FACE ON UNIT   1016 AT TIME STEP      7, STRESS PERIOD      6
 UBDSV06 SAVING              RCH IN MODEL TEST_TRANS       PACKAGE TEST_TRANS      CONNECTED TO MODEL TEST_TRANS       PACKAGE RCHA             ON UNIT   1016 AT TIME STEP      7, STRESS PERIOD      6
 UBDSV06 SAVING              CHD IN MODEL TEST_TRANS       PACKAGE TEST_TRANS      CONNECTED TO MODEL TEST_TRANS       PACKAGE CHD              ON UNIT   1016 AT TIME STEP      7, STRESS PERIOD      6

 HEAD WILL BE SAVED ON UNIT 1017 AT END OF TIME STEP    7, STRESS PERIOD    6
 UBDSV1 SAVING           STO-SS ON UNIT   1016 AT TIME STEP      8, STRESS PERIOD      6
 UBDSV1 SAVING           STO-SY ON UNIT   1016 AT TIME STEP      8, STRESS PERIOD      6
 UBDSV1 SAVING     FLOW-JA-FACE ON UNIT   1016 AT TIME STEP      8, STRESS PERIOD      6
 UBDSV06 SAVING              RCH IN MODEL TEST_TRANS       PACKAGE TEST_TRANS      CONNECTED TO MODEL TEST_TRANS       PACKAGE RCHA             ON UNIT   1016 AT TIME STEP      8, STRESS PERIOD      6
 UBDSV06 SAVING              CHD IN MODEL TEST_TRANS       PACKAGE TEST_TRANS      CONNECTED TO MODEL TEST_TRANS       PACKAGE CHD              ON UNIT   1016 AT TIME STEP      8, STRESS PERIOD      6

 HEAD WILL BE SAVED ON UNIT 1017 AT END OF TIME STEP    8, STRESS PERIOD    6
 UBDSV1 SAVING           STO-SS ON UNIT   1016 AT TIME STEP      9, STRESS PERIOD      6
 UBDSV1 SAVING           STO-SY ON UNIT   1016 AT TIME STEP      9, STRESS PERIOD      6
 UBDSV1 SAVING     FLOW-JA-FACE ON UNIT   1016 AT TIME STEP      9, STRESS PERIOD      6
 UBDSV06 SAVING              RCH IN MODEL TEST_TRANS       PACKAGE TEST_TRANS      CONNECTED TO MODEL TEST_TRANS       PACKAGE RCHA             ON UNIT   1016 AT TIME STEP      9, STRESS PERIOD      6
 UBDSV06 SAVING              CHD IN MODEL TEST_TRANS       PACKAGE TEST_TRANS      CONNECTED TO MODEL TEST_TRANS       PACKAGE CHD              ON UNIT   1016 AT TIME STEP      9, STRESS PERIOD      6

 HEAD WILL BE SAVED ON UNIT 1017 AT END OF TIME STEP    9, STRESS PERIOD    6
 UBDSV1 SAVING           STO-SS ON UNIT   1016 AT TIME STEP     10, STRESS PERIOD      6
 UBDSV1 SAVING           STO-SY ON UNIT   1016 AT TIME STEP     10, STRESS PERIOD      6
 UBDSV1 SAVING     FLOW-JA-FACE ON UNIT   1016 AT TIME STEP     10, STRESS PERIOD      6
 UBDSV06 SAVING              RCH IN MODEL TEST_TRANS       PACKAGE TEST_TRANS      CONNECTED TO MODEL TEST_TRANS       PACKAGE RCHA             ON UNIT   1016 AT TIME STEP     10, STRESS PERIOD      6
 UBDSV06 SAVING              CHD IN MODEL TEST_TRANS       PACKAGE TEST_TRANS      CONNECTED TO MODEL TEST_TRANS       PACKAGE CHD              ON UNIT   1016 AT TIME STEP     10, STRESS PERIOD      6
1
  HEAD IN LAYER   1 AT END OF TIME STEP  10 IN STRESS PERIOD    6
  ---------------------------------------------------------------------------

            1           2           3           4           5           6           7           8           9          10
           11          12          13          14          15          16          17          18          19          20
           21          22          23          24          25          26          27          28          29          30
 ........................................................................................................................
   1    28.15       28.14       28.13       28.12       28.10       28.08       28.05       28.02       27.98       27.94    
        27.89       27.84       27.79       27.73       27.66       27.59       27.51       27.43       27.34       27.24    
        27.14       27.04       26.92       26.80       26.67       26.53       26.38       26.22       26.05       25.87    
   2    28.15       28.14       28.13       28.12       28.10       28.08       28.05       28.02       27.98       27.94    
        27.89       27.84       27.79       27.73       27.66       27.59       27.51       27.43       27.34       27.24    
        27.14       27.04       26.92       26.80       26.67       26.53       26.38       26.22       26.05       25.87    
   3    28.15       28.14       28.13       28.12       28.10       28.08       28.05       28.02       27.98       27.94    
        27.89       27.84       27.79       27.73       27.66       27.59       27.51       27.43       27.34       27.24    
        27.14       27.04       26.92       26.80       26.67       26.53       26.38       26.22       26.05       25.87    
   4    28.15       28.14       28.13       28.12       28.10       28.08       28.05       28.02       27.98       27.94    
        27.89       27.84       27.79       27.73       27.66       27.59       27.51       27.43       27.34       27.24    
        27.14       27.04       26.92       26.80       26.67       26.53       26.38       26.22       26.05       25.87    
   5    28.15       28.14       28.13       28.12       28.10       28.08       28.05       28.02       27.98       27.94    
        27.89       27.84       27.79       27.73       27.66       27.59       27.51       27.43       27.34       27.24    
        27.14       27.04       26.92       26.80       26.67       26.53       26.38       26.22       26.05       25.87    
   6    28.15       28.14       28.13       28.12       28.10       28.08       28.05       28.02       27.98       27.94    
        27.89       27.84       27.79       27.73       27.66       27.59       27.51       27.43       27.34       27.24    
        27.14       27.04       26.92       26.80       26.67       26.53       26.38       26.22       26.05       25.87    
   7    28.15       28.14       28.13       28.12       28.10       28.08       28.05       28.02       27.98       27.94    
        27.89       27.84       27.79       27.73       27.66       27.59       27.51       27.43       27.34       27.24    
        27.14       27.04       26.92       26.80       26.67       26.53       26.38       26.22       26.05       25.87    
   8    28.15       28.14       28.13       28.12       28.10       28.08       28.05       28.02       27.98       27.94    
        27.89       27.84       27.79       27.73       27.66       27.59       27.51       27.43       27.34       27.24    
        27.14       27.04       26.92       26.80       26.67       26.53       26.38       26.22       26.05       25.87    
   9    28.15       28.14       28.13       28.12       28.10       28.08       28.05       28.02       27.98       27.94    
        27.89       27.84       27.79       27.73       27.66       27.59       27.51       27.43       27.34       27.24    
        27.14       27.04       26.92       26.80       26.67       26.53       26.38       26.22       26.05       25.87    
  10    28.15       28.14       28.13       28.12       28.10       28.08       28.05       28.02       27.98       27.94    
        27.89       27.84       27.79       27.73       27.66       27.59       27.51       27.43       27.34       27.24    
        27.14       27.04       26.92       26.80       26.67       26.53       26.38       26.22       26.05       25.87    
  11    28.15       28.14       28.13       28.12       28.10       28.08       28.05       28.02       27.98       27.94    
        27.89       27.84       27.79       27.73       27.66       27.59       27.51       27.43       27.34       27.24    
        27.14       27.04       26.92       26.80       26.67       26.53       26.38       26.22       26.05       25.87    
  12    28.15       28.14       28.13       28.12       28.10       28.08       28.05       28.02       27.98       27.94    
        27.89       27.84       27.79       27.73       27.66       27.59       27.51       27.43       27.34       27.24    
        27.14       27.04       26.92       26.80       26.67       26.53       26.38       26.22       26.05       25.87    
  13    28.15       28.14       28.13       28.12       28.10       28.08       28.05       28.02       27.98       27.94    
        27.89       27.84       27.79       27.73       27.66       27.59       27.51       27.43       27.34       27.24    
        27.14       27.04       26.92       26.80       26.67       26.53       26.38       26.22       26.05       25.87    
  14    28.15       28.14       28.13       28.12       28.10       28.08       28.05       28.02       27.98       27.94    
        27.89       27.84       27.79       27.73       27.66       27.59       27.51       27.43       27.34       27.24    
        27.14       27.04       26.92       26.80       26.67       26.53       26.38       26.22       26.05       25.87    
  15    28.15       28.14       28.13       28.12       28.10       28.08       28.05       28.02       27.98       27.94    
        27.89       27.84       27.79       27.73       27.66       27.59       27.51       27.43       27.34       27.24    
        27.14       27.04       26.92       26.80       26.67       26.53       26.38       26.22       26.05       25.87    
  16    28.15       28.14       28.13       28.12       28.10       28.08       28.05       28.02       27.98       27.94    
        27.89       27.84       27.79       27.73       27.66       27.59       27.51       27.43       27.34       27.24    
        27.14       27.04       26.92       26.80       26.67       26.53       26.38       26.22       26.05       25.87    
  17    28.15       28.14       28.13       28.12       28.10       28.08       28.05       28.02       27.98       27.94    
        27.89       27.84       27.79       27.73       27.66       27.59       27.51       27.43       27.34       27.24    
        27.14       27.04       26.92       26.80       26.67       26.53       26.38       26.22       26.05       25.87    
  18    28.15       28.14       28.13       28.12       28.10       28.08       28.05       28.02       27.98       27.94    
        27.89       27.84       27.79       27.73       27.66       27.59       27.51       27.43       27.34       27.24    
        27.14       27.04       26.92       26.80       26.67       26.53       26.38       26.22       26.05       25.87    
  19    28.15       28.14       28.13       28.12       28.10       28.08       28.05       28.02       27.98       27.94    
        27.89       27.84       27.79       27.73       27.66       27.59       27.51       27.43       27.34       27.24    
        27.14       27.04       26.92       26.80       26.67       26.53       26.38       26.22       26.05       25.87    
  20    28.15       28.14       28.13       28.12       28.10       28.08       28.05       28.02       27.98       27.94    
        27.89       27.84       27.79       27.73       27.66       27.59       27.51       27.43       27.34       27.24    
        27.14       27.04       26.92       26.80       26.67       26.53       26.38       26.22       26.05       25.87    
  21    28.15       28.14       28.13       28.12       28.10       28.08       28.05       28.02       27.98       27.94    
        27.89       27.84       27.79       27.73       27.66       27.59       27.51       27.43       27.34       27.24    
        27.14       27.04       26.92       26.80       26.67       26.53       26.38       26.22       26.05       25.87    
  22    28.15       28.14       28.13       28.12       28.10       28.08       28.05       28.02       27.98       27.94    
        27.89       27.84       27.79       27.73       27.66       27.59       27.51       27.43       27.34       27.24    
        27.14       27.04       26.92       26.80       26.67       26.53       26.38       26.22       26.05       25.87    
  23    28.15       28.14       28.13       28.12       28.10       28.08       28.05       28.02       27.98       27.94    
        27.89       27.84       27.79       27.73       27.66       27.59       27.51       27.43       27.34       27.24    
        27.14       27.04       26.92       26.80       26.67       26.53       26.38       26.22       26.05       25.87    
  24    28.15       28.14       28.13       28.12       28.10       28.08       28.05       28.02       27.98       27.94    
        27.89       27.84       27.79       27.73       27.66       27.59       27.51       27.43       27.34       27.24    
        27.14       27.04       26.92       26.80       26.67       26.53       26.38       26.22       26.05       25.87    
  25    28.15       28.14       28.13       28.12       28.10       28.08       28.05       28.02       27.98       27.94    
        27.89       27.84       27.79       27.73       27.66       27.59       27.51       27.43       27.34       27.24    
        27.14       27.04       26.92       26.80       26.67       26.53       26.38       26.22       26.05       25.87    
  26    28.15       28.14       28.13       28.12       28.10       28.08       28.05       28.02       27.98       27.94    
        27.89       27.84       27.79       27.73       27.66       27.59       27.51       27.43       27.34       27.24    
        27.14       27.04       26.92       26.80       26.67       26.53       26.38       26.22       26.05       25.87    
  27    28.15       28.14       28.13       28.12       28.10       28.08       28.05       28.02       27.98       27.94    
        27.89       27.84       27.79       27.73       27.66       27.59       27.51       27.43       27.34       27.24    
        27.14       27.04       26.92       26.80       26.67       26.53       26.38       26.22       26.05       25.87    
  28    28.15       28.14       28.13       28.12       28.10       28.08       28.05       28.02       27.98       27.94    
        27.89       27.84       27.79       27.73       27.66       27.59       27.51       27.43       27.34       27.24    
        27.14       27.04       26.92       26.80       26.67       26.53       26.38       26.22       26.05       25.87    
  29    28.15       28.14       28.13       28.12       28.10       28.08       28.05       28.02       27.98       27.94    
        27.89       27.84       27.79       27.73       27.66       27.59       27.51       27.43       27.34       27.24    
        27.14       27.04       26.92       26.80       26.67       26.53       26.38       26.22       26.05       25.87    
  30    28.15       28.14       28.13       28.12       28.10       28.08       28.05       28.02       27.98       27.94    
        27.89       27.84       27.79       27.73       27.66       27.59       27.51       27.43       27.34       27.24    
        27.14       27.04       26.92       26.80       26.67       26.53       26.38       26.22       26.05       25.87    

 HEAD WILL BE SAVED ON UNIT 1017 AT END OF TIME STEP   10, STRESS PERIOD    6


  VOLUME BUDGET FOR ENTIRE MODEL AT END OF TIME STEP   10, STRESS PERIOD   6
  ---------------------------------------------------------------------------------------------------

     CUMULATIVE VOLUME      L**3       RATES FOR THIS TIME STEP      L**3/T          PACKAGE NAME    
     ------------------                 ------------------------                     ----------------

           IN:                                      IN:
           ---                                      ---
              STO-SS =          10.9591                STO-SS =           0.1135     STORAGE         
              STO-SY =        6631.2415                STO-SY =          69.8959     STORAGE         
                 RCH =       24908.2274                   RCH =          71.5068     RCHA            
                 CHD =           0.0000                   CHD =           0.0000     CHD             

            TOTAL IN =       31550.4279              TOTAL IN =         141.5162

          OUT:                                     OUT:
          ----                                     ----
              STO-SS =           3.4062                STO-SS =           0.0000     STORAGE         
              STO-SY =        2177.4326                STO-SY =           0.0000     STORAGE         
                 RCH =           0.0000                   RCH =           0.0000     RCHA            
                 CHD =       29369.0519                   CHD =         141.5125     CHD             

           TOTAL OUT =       31549.8906             TOTAL OUT =         141.5125

            IN - OUT =           0.5373              IN - OUT =       3.7633E-03

 PERCENT DISCREPANCY =           0.00     PERCENT DISCREPANCY =           0.00




         TIME SUMMARY AT END OF TIME STEP   10 IN STRESS PERIOD    6
                    SECONDS     MINUTES      HOURS       DAYS        YEARS
                    -----------------------------------------------------------
   TIME STEP LENGTH 2.59200E+05  4320.0      72.000      3.0000     8.21355E-03
 STRESS PERIOD TIME 2.59200E+06  43200.      720.00      30.000     8.21355E-02
         TOTAL TIME 1.30464E+07 2.17440E+05  3624.0      151.00     0.41342    

 OUTPUT CONTROL FOR STRESS PERIOD 7 IS REPEATED USING SETTINGS FROM A PREVIOUS STRESS PERIOD.


 STRESS PERIOD 7 IS TRANSIENT


                 RECHARGE =  0.5479452E-03
 UBDSV1 SAVING           STO-SS ON UNIT   1016 AT TIME STEP      1, STRESS PERIOD      7
 UBDSV1 SAVING           STO-SY ON UNIT   1016 AT TIME STEP      1, STRESS PERIOD      7
 UBDSV1 SAVING     FLOW-JA-FACE ON UNIT   1016 AT TIME STEP      1, STRESS PERIOD      7
 UBDSV06 SAVING              RCH IN MODEL TEST_TRANS       PACKAGE TEST_TRANS      CONNECTED TO MODEL TEST_TRANS       PACKAGE RCHA             ON UNIT   1016 AT TIME STEP      1, STRESS PERIOD      7
 UBDSV06 SAVING              CHD IN MODEL TEST_TRANS       PACKAGE TEST_TRANS      CONNECTED TO MODEL TEST_TRANS       PACKAGE CHD              ON UNIT   1016 AT TIME STEP      1, STRESS PERIOD      7
1
  HEAD IN LAYER   1 AT END OF TIME STEP   1 IN STRESS PERIOD    7
  ---------------------------------------------------------------------------

            1           2           3           4           5           6           7           8           9          10
           11          12          13          14          15          16          17          18          19          20
           21          22          23          24          25          26          27          28          29          30
 ........................................................................................................................
   1    28.13       28.12       28.11       28.10       28.08       28.06       28.03       28.00       27.96       27.92    
        27.87       27.82       27.77       27.71       27.64       27.57       27.49       27.41       27.32       27.23    
        27.12       27.01       26.89       26.76       26.62       26.46       26.27       26.04       25.73       25.27    
   2    28.13       28.12       28.11       28.10       28.08       28.06       28.03       28.00       27.96       27.92    
        27.87       27.82       27.77       27.71       27.64       27.57       27.49       27.41       27.32       27.23    
        27.12       27.01       26.89       26.76       26.62       26.46       26.27       26.04       25.73       25.27    
   3    28.13       28.12       28.11       28.10       28.08       28.06       28.03       28.00       27.96       27.92    
        27.87       27.82       27.77       27.71       27.64       27.57       27.49       27.41       27.32       27.23    
        27.12       27.01       26.89       26.76       26.62       26.46       26.27       26.04       25.73       25.27    
   4    28.13       28.12       28.11       28.10       28.08       28.06       28.03       28.00       27.96       27.92    
        27.87       27.82       27.77       27.71       27.64       27.57       27.49       27.41       27.32       27.23    
        27.12       27.01       26.89       26.76       26.62       26.46       26.27       26.04       25.73       25.27    
   5    28.13       28.12       28.11       28.10       28.08       28.06       28.03       28.00       27.96       27.92    
        27.87       27.82       27.77       27.71       27.64       27.57       27.49       27.41       27.32       27.23    
        27.12       27.01       26.89       26.76       26.62       26.46       26.27       26.04       25.73       25.27    
   6    28.13       28.12       28.11       28.10       28.08       28.06       28.03       28.00       27.96       27.92    
        27.87       27.82       27.77       27.71       27.64       27.57       27.49       27.41       27.32       27.23    
        27.12       27.01       26.89       26.76       26.62       26.46       26.27       26.04       25.73       25.27    
   7    28.13       28.12       28.11       28.10       28.08       28.06       28.03       28.00       27.96       27.92    
        27.87       27.82       27.77       27.71       27.64       27.57       27.49       27.41       27.32       27.23    
        27.12       27.01       26.89       26.76       26.62       26.46       26.27       26.04       25.73       25.27    
   8    28.13       28.12       28.11       28.10       28.08       28.06       28.03       28.00       27.96       27.92    
        27.87       27.82       27.77       27.71       27.64       27.57       27.49       27.41       27.32       27.23    
        27.12       27.01       26.89       26.76       26.62       26.46       26.27       26.04       25.73       25.27    
   9    28.13       28.12       28.11       28.10       28.08       28.06       28.03       28.00       27.96       27.92    
        27.87       27.82       27.77       27.71       27.64       27.57       27.49       27.41       27.32       27.23    
        27.12       27.01       26.89       26.76       26.62       26.46       26.27       26.04       25.73       25.27    
  10    28.13       28.12       28.11       28.10       28.08       28.06       28.03       28.00       27.96       27.92    
        27.87       27.82       27.77       27.71       27.64       27.57       27.49       27.41       27.32       27.23    
        27.12       27.01       26.89       26.76       26.62       26.46       26.27       26.04       25.73       25.27    
  11    28.13       28.12       28.11       28.10       28.08       28.06       28.03       28.00       27.96       27.92    
        27.87       27.82       27.77       27.71       27.64       27.57       27.49       27.41       27.32       27.23    
        27.12       27.01       26.89       26.76       26.62       26.46       26.27       26.04       25.73       25.27    
  12    28.13       28.12       28.11       28.10       28.08       28.06       28.03       28.00       27.96       27.92    
        27.87       27.82       27.77       27.71       27.64       27.57       27.49       27.41       27.32       27.23    
        27.12       27.01       26.89       26.76       26.62       26.46       26.27       26.04       25.73       25.27    
  13    28.13       28.12       28.11       28.10       28.08       28.06       28.03       28.00       27.96       27.92    
        27.87       27.82       27.77       27.71       27.64       27.57       27.49       27.41       27.32       27.23    
        27.12       27.01       26.89       26.76       26.62       26.46       26.27       26.04       25.73       25.27    
  14    28.13       28.12       28.11       28.10       28.08       28.06       28.03       28.00       27.96       27.92    
        27.87       27.82       27.77       27.71       27.64       27.57       27.49       27.41       27.32       27.23    
        27.12       27.01       26.89       26.76       26.62       26.46       26.27       26.04       25.73       25.27    
  15    28.13       28.12       28.11       28.10       28.08       28.06       28.03       28.00       27.96       27.92    
        27.87       27.82       27.77       27.71       27.64       27.57       27.49       27.41       27.32       27.23    
        27.12       27.01       26.89       26.76       26.62       26.46       26.27       26.04       25.73       25.27    
  16    28.13       28.12       28.11       28.10       28.08       28.06       28.03       28.00       27.96       27.92    
        27.87       27.82       27.77       27.71       27.64       27.57       27.49       27.41       27.32       27.23    
        27.12       27.01       26.89       26.76       26.62       26.46       26.27       26.04       25.73       25.27    
  17    28.13       28.12       28.11       28.10       28.08       28.06       28.03       28.00       27.96       27.92    
        27.87       27.82       27.77       27.71       27.64       27.57       27.49       27.41       27.32       27.23    
        27.12       27.01       26.89       26.76       26.62       26.46       26.27       26.04       25.73       25.27    
  18    28.13       28.12       28.11       28.10       28.08       28.06       28.03       28.00       27.96       27.92    
        27.87       27.82       27.77       27.71       27.64       27.57       27.49       27.41       27.32       27.23    
        27.12       27.01       26.89       26.76       26.62       26.46       26.27       26.04       25.73       25.27    
  19    28.13       28.12       28.11       28.10       28.08       28.06       28.03       28.00       27.96       27.92    
        27.87       27.82       27.77       27.71       27.64       27.57       27.49       27.41       27.32       27.23    
        27.12       27.01       26.89       26.76       26.62       26.46       26.27       26.04       25.73       25.27    
  20    28.13       28.12       28.11       28.10       28.08       28.06       28.03       28.00       27.96       27.92    
        27.87       27.82       27.77       27.71       27.64       27.57       27.49       27.41       27.32       27.23    
        27.12       27.01       26.89       26.76       26.62       26.46       26.27       26.04       25.73       25.27    
  21    28.13       28.12       28.11       28.10       28.08       28.06       28.03       28.00       27.96       27.92    
        27.87       27.82       27.77       27.71       27.64       27.57       27.49       27.41       27.32       27.23    
        27.12       27.01       26.89       26.76       26.62       26.46       26.27       26.04       25.73       25.27    
  22    28.13       28.12       28.11       28.10       28.08       28.06       28.03       28.00       27.96       27.92    
        27.87       27.82       27.77       27.71       27.64       27.57       27.49       27.41       27.32       27.23    
        27.12       27.01       26.89       26.76       26.62       26.46       26.27       26.04       25.73       25.27    
  23    28.13       28.12       28.11       28.10       28.08       28.06       28.03       28.00       27.96       27.92    
        27.87       27.82       27.77       27.71       27.64       27.57       27.49       27.41       27.32       27.23    
        27.12       27.01       26.89       26.76       26.62       26.46       26.27       26.04       25.73       25.27    
  24    28.13       28.12       28.11       28.10       28.08       28.06       28.03       28.00       27.96       27.92    
        27.87       27.82       27.77       27.71       27.64       27.57       27.49       27.41       27.32       27.23    
        27.12       27.01       26.89       26.76       26.62       26.46       26.27       26.04       25.73       25.27    
  25    28.13       28.12       28.11       28.10       28.08       28.06       28.03       28.00       27.96       27.92    
        27.87       27.82       27.77       27.71       27.64       27.57       27.49       27.41       27.32       27.23    
        27.12       27.01       26.89       26.76       26.62       26.46       26.27       26.04       25.73       25.27    
  26    28.13       28.12       28.11       28.10       28.08       28.06       28.03       28.00       27.96       27.92    
        27.87       27.82       27.77       27.71       27.64       27.57       27.49       27.41       27.32       27.23    
        27.12       27.01       26.89       26.76       26.62       26.46       26.27       26.04       25.73       25.27    
  27    28.13       28.12       28.11       28.10       28.08       28.06       28.03       28.00       27.96       27.92    
        27.87       27.82       27.77       27.71       27.64       27.57       27.49       27.41       27.32       27.23    
        27.12       27.01       26.89       26.76       26.62       26.46       26.27       26.04       25.73       25.27    
  28    28.13       28.12       28.11       28.10       28.08       28.06       28.03       28.00       27.96       27.92    
        27.87       27.82       27.77       27.71       27.64       27.57       27.49       27.41       27.32       27.23    
        27.12       27.01       26.89       26.76       26.62       26.46       26.27       26.04       25.73       25.27    
  29    28.13       28.12       28.11       28.10       28.08       28.06       28.03       28.00       27.96       27.92    
        27.87       27.82       27.77       27.71       27.64       27.57       27.49       27.41       27.32       27.23    
        27.12       27.01       26.89       26.76       26.62       26.46       26.27       26.04       25.73       25.27    
  30    28.13       28.12       28.11       28.10       28.08       28.06       28.03       28.00       27.96       27.92    
        27.87       27.82       27.77       27.71       27.64       27.57       27.49       27.41       27.32       27.23    
        27.12       27.01       26.89       26.76       26.62       26.46       26.27       26.04       25.73       25.27    

 HEAD WILL BE SAVED ON UNIT 1017 AT END OF TIME STEP    1, STRESS PERIOD    7



         TIME SUMMARY AT END OF TIME STEP    1 IN STRESS PERIOD    7
                    SECONDS     MINUTES      HOURS       DAYS        YEARS
                    -----------------------------------------------------------
   TIME STEP LENGTH 2.59200E+05  4320.0      72.000      3.0000     8.21355E-03
 STRESS PERIOD TIME 2.59200E+05  4320.0      72.000      3.0000     8.21355E-03
         TOTAL TIME 1.33056E+07 2.21760E+05  3696.0      154.00     0.42163    
 UBDSV1 SAVING           STO-SS ON UNIT   1016 AT TIME STEP      2, STRESS PERIOD      7
 UBDSV1 SAVING           STO-SY ON UNIT   1016 AT TIME STEP      2, STRESS PERIOD      7
 UBDSV1 SAVING     FLOW-JA-FACE ON UNIT   1016 AT TIME STEP      2, STRESS PERIOD      7
 UBDSV06 SAVING              RCH IN MODEL TEST_TRANS       PACKAGE TEST_TRANS      CONNECTED TO MODEL TEST_TRANS       PACKAGE RCHA             ON UNIT   1016 AT TIME STEP      2, STRESS PERIOD      7
 UBDSV06 SAVING              CHD IN MODEL TEST_TRANS       PACKAGE TEST_TRANS      CONNECTED TO MODEL TEST_TRANS       PACKAGE CHD              ON UNIT   1016 AT TIME STEP      2, STRESS PERIOD      7

 HEAD WILL BE SAVED ON UNIT 1017 AT END OF TIME STEP    2, STRESS PERIOD    7
 UBDSV1 SAVING           STO-SS ON UNIT   1016 AT TIME STEP      3, STRESS PERIOD      7
 UBDSV1 SAVING           STO-SY ON UNIT   1016 AT TIME STEP      3, STRESS PERIOD      7
 UBDSV1 SAVING     FLOW-JA-FACE ON UNIT   1016 AT TIME STEP      3, STRESS PERIOD      7
 UBDSV06 SAVING              RCH IN MODEL TEST_TRANS       PACKAGE TEST_TRANS      CONNECTED TO MODEL TEST_TRANS       PACKAGE RCHA             ON UNIT   1016 AT TIME STEP      3, STRESS PERIOD      7
 UBDSV06 SAVING              CHD IN MODEL TEST_TRANS       PACKAGE TEST_TRANS      CONNECTED TO MODEL TEST_TRANS       PACKAGE CHD              ON UNIT   1016 AT TIME STEP      3, STRESS PERIOD      7

 HEAD WILL BE SAVED ON UNIT 1017 AT END OF TIME STEP    3, STRESS PERIOD    7
 UBDSV1 SAVING           STO-SS ON UNIT   1016 AT TIME STEP      4, STRESS PERIOD      7
 UBDSV1 SAVING           STO-SY ON UNIT   1016 AT TIME STEP      4, STRESS PERIOD      7
 UBDSV1 SAVING     FLOW-JA-FACE ON UNIT   1016 AT TIME STEP      4, STRESS PERIOD      7
 UBDSV06 SAVING              RCH IN MODEL TEST_TRANS       PACKAGE TEST_TRANS      CONNECTED TO MODEL TEST_TRANS       PACKAGE RCHA             ON UNIT   1016 AT TIME STEP      4, STRESS PERIOD      7
 UBDSV06 SAVING              CHD IN MODEL TEST_TRANS       PACKAGE TEST_TRANS      CONNECTED TO MODEL TEST_TRANS       PACKAGE CHD              ON UNIT   1016 AT TIME STEP      4, STRESS PERIOD      7

 HEAD WILL BE SAVED ON UNIT 1017 AT END OF TIME STEP    4, STRESS PERIOD    7
 UBDSV1 SAVING           STO-SS ON UNIT   1016 AT TIME STEP      5, STRESS PERIOD      7
 UBDSV1 SAVING           STO-SY ON UNIT   1016 AT TIME STEP      5, STRESS PERIOD      7
 UBDSV1 SAVING     FLOW-JA-FACE ON UNIT   1016 AT TIME STEP      5, STRESS PERIOD      7
 UBDSV06 SAVING              RCH IN MODEL TEST_TRANS       PACKAGE TEST_TRANS      CONNECTED TO MODEL TEST_TRANS       PACKAGE RCHA             ON UNIT   1016 AT TIME STEP      5, STRESS PERIOD      7
 UBDSV06 SAVING              CHD IN MODEL TEST_TRANS       PACKAGE TEST_TRANS      CONNECTED TO MODEL TEST_TRANS       PACKAGE CHD              ON UNIT   1016 AT TIME STEP      5, STRESS PERIOD      7

 HEAD WILL BE SAVED ON UNIT 1017 AT END OF TIME STEP    5, STRESS PERIOD    7
 UBDSV1 SAVING           STO-SS ON UNIT   1016 AT TIME STEP      6, STRESS PERIOD      7
 UBDSV1 SAVING           STO-SY ON UNIT   1016 AT TIME STEP      6, STRESS PERIOD      7
 UBDSV1 SAVING     FLOW-JA-FACE ON UNIT   1016 AT TIME STEP      6, STRESS PERIOD      7
 UBDSV06 SAVING              RCH IN MODEL TEST_TRANS       PACKAGE TEST_TRANS      CONNECTED TO MODEL TEST_TRANS       PACKAGE RCHA             ON UNIT   1016 AT TIME STEP      6, STRESS PERIOD      7
 UBDSV06 SAVING              CHD IN MODEL TEST_TRANS       PACKAGE TEST_TRANS      CONNECTED TO MODEL TEST_TRANS       PACKAGE CHD              ON UNIT   1016 AT TIME STEP      6, STRESS PERIOD      7

 HEAD WILL BE SAVED ON UNIT 1017 AT END OF TIME STEP    6, STRESS PERIOD    7
 UBDSV1 SAVING           STO-SS ON UNIT   1016 AT TIME STEP      7, STRESS PERIOD      7
 UBDSV1 SAVING           STO-SY ON UNIT   1016 AT TIME STEP      7, STRESS PERIOD      7
 UBDSV1 SAVING     FLOW-JA-FACE ON UNIT   1016 AT TIME STEP      7, STRESS PERIOD      7
 UBDSV06 SAVING              RCH IN MODEL TEST_TRANS       PACKAGE TEST_TRANS      CONNECTED TO MODEL TEST_TRANS       PACKAGE RCHA             ON UNIT   1016 AT TIME STEP      7, STRESS PERIOD      7
 UBDSV06 SAVING              CHD IN MODEL TEST_TRANS       PACKAGE TEST_TRANS      CONNECTED TO MODEL TEST_TRANS       PACKAGE CHD              ON UNIT   1016 AT TIME STEP      7, STRESS PERIOD      7

 HEAD WILL BE SAVED ON UNIT 1017 AT END OF TIME STEP    7, STRESS PERIOD    7
 UBDSV1 SAVING           STO-SS ON UNIT   1016 AT TIME STEP      8, STRESS PERIOD      7
 UBDSV1 SAVING           STO-SY ON UNIT   1016 AT TIME STEP      8, STRESS PERIOD      7
 UBDSV1 SAVING     FLOW-JA-FACE ON UNIT   1016 AT TIME STEP      8, STRESS PERIOD      7
 UBDSV06 SAVING              RCH IN MODEL TEST_TRANS       PACKAGE TEST_TRANS      CONNECTED TO MODEL TEST_TRANS       PACKAGE RCHA             ON UNIT   1016 AT TIME STEP      8, STRESS PERIOD      7
 UBDSV06 SAVING              CHD IN MODEL TEST_TRANS       PACKAGE TEST_TRANS      CONNECTED TO MODEL TEST_TRANS       PACKAGE CHD              ON UNIT   1016 AT TIME STEP      8, STRESS PERIOD      7

 HEAD WILL BE SAVED ON UNIT 1017 AT END OF TIME STEP    8, STRESS PERIOD    7
 UBDSV1 SAVING           STO-SS ON UNIT   1016 AT TIME STEP      9, STRESS PERIOD      7
 UBDSV1 SAVING           STO-SY ON UNIT   1016 AT TIME STEP      9, STRESS PERIOD      7
 UBDSV1 SAVING     FLOW-JA-FACE ON UNIT   1016 AT TIME STEP      9, STRESS PERIOD      7
 UBDSV06 SAVING              RCH IN MODEL TEST_TRANS       PACKAGE TEST_TRANS      CONNECTED TO MODEL TEST_TRANS       PACKAGE RCHA             ON UNIT   1016 AT TIME STEP      9, STRESS PERIOD      7
 UBDSV06 SAVING              CHD IN MODEL TEST_TRANS       PACKAGE TEST_TRANS      CONNECTED TO MODEL TEST_TRANS       PACKAGE CHD              ON UNIT   1016 AT TIME STEP      9, STRESS PERIOD      7

 HEAD WILL BE SAVED ON UNIT 1017 AT END OF TIME STEP    9, STRESS PERIOD    7
 UBDSV1 SAVING           STO-SS ON UNIT   1016 AT TIME STEP     10, STRESS PERIOD      7
 UBDSV1 SAVING           STO-SY ON UNIT   1016 AT TIME STEP     10, STRESS PERIOD      7
 UBDSV1 SAVING     FLOW-JA-FACE ON UNIT   1016 AT TIME STEP     10, STRESS PERIOD      7
 UBDSV06 SAVING              RCH IN MODEL TEST_TRANS       PACKAGE TEST_TRANS      CONNECTED TO MODEL TEST_TRANS       PACKAGE RCHA             ON UNIT   1016 AT TIME STEP     10, STRESS PERIOD      7
 UBDSV06 SAVING              CHD IN MODEL TEST_TRANS       PACKAGE TEST_TRANS      CONNECTED TO MODEL TEST_TRANS       PACKAGE CHD              ON UNIT   1016 AT TIME STEP     10, STRESS PERIOD      7
1
  HEAD IN LAYER   1 AT END OF TIME STEP  10 IN STRESS PERIOD    7
  ---------------------------------------------------------------------------

            1           2           3           4           5           6           7           8           9          10
           11          12          13          14          15          16          17          18          19          20
           21          22          23          24          25          26          27          28          29          30
 ........................................................................................................................
   1    27.94       27.94       27.93       27.92       27.90       27.88       27.85       27.82       27.78       27.74    
        27.69       27.64       27.58       27.52       27.45       27.38       27.29       27.20       27.11       27.00    
        26.89       26.77       26.63       26.49       26.33       26.15       25.97       25.76       25.53       25.27    
   2    27.94       27.94       27.93       27.92       27.90       27.88       27.85       27.82       27.78       27.74    
        27.69       27.64       27.58       27.52       27.45       27.38       27.29       27.20       27.11       27.00    
        26.89       26.77       26.63       26.49       26.33       26.15       25.97       25.76       25.53       25.27    
   3    27.94       27.94       27.93       27.92       27.90       27.88       27.85       27.82       27.78       27.74    
        27.69       27.64       27.58       27.52       27.45       27.38       27.29       27.20       27.11       27.00    
        26.89       26.77       26.63       26.49       26.33       26.15       25.97       25.76       25.53       25.27    
   4    27.94       27.94       27.93       27.92       27.90       27.88       27.85       27.82       27.78       27.74    
        27.69       27.64       27.58       27.52       27.45       27.38       27.29       27.20       27.11       27.00    
        26.89       26.77       26.63       26.49       26.33       26.15       25.97       25.76       25.53       25.27    
   5    27.94       27.94       27.93       27.92       27.90       27.88       27.85       27.82       27.78       27.74    
        27.69       27.64       27.58       27.52       27.45       27.38       27.29       27.20       27.11       27.00    
        26.89       26.77       26.63       26.49       26.33       26.15       25.97       25.76       25.53       25.27    
   6    27.94       27.94       27.93       27.92       27.90       27.88       27.85       27.82       27.78       27.74    
        27.69       27.64       27.58       27.52       27.45       27.38       27.29       27.20       27.11       27.00    
        26.89       26.77       26.63       26.49       26.33       26.15       25.97       25.76       25.53       25.27    
   7    27.94       27.94       27.93       27.92       27.90       27.88       27.85       27.82       27.78       27.74    
        27.69       27.64       27.58       27.52       27.45       27.38       27.29       27.20       27.11       27.00    
        26.89       26.77       26.63       26.49       26.33       26.15       25.97       25.76       25.53       25.27    
   8    27.94       27.94       27.93       27.92       27.90       27.88       27.85       27.82       27.78       27.74    
        27.69       27.64       27.58       27.52       27.45       27.38       27.29       27.20       27.11       27.00    
        26.89       26.77       26.63       26.49       26.33       26.15       25.97       25.76       25.53       25.27    
   9    27.94       27.94       27.93       27.92       27.90       27.88       27.85       27.82       27.78       27.74    
        27.69       27.64       27.58       27.52       27.45       27.38       27.29       27.20       27.11       27.00    
        26.89       26.77       26.63       26.49       26.33       26.15       25.97       25.76       25.53       25.27    
  10    27.94       27.94       27.93       27.92       27.90       27.88       27.85       27.82       27.78       27.74    
        27.69       27.64       27.58       27.52       27.45       27.38       27.29       27.20       27.11       27.00    
        26.89       26.77       26.63       26.49       26.33       26.15       25.97       25.76       25.53       25.27    
  11    27.94       27.94       27.93       27.92       27.90       27.88       27.85       27.82       27.78       27.74    
        27.69       27.64       27.58       27.52       27.45       27.38       27.29       27.20       27.11       27.00    
        26.89       26.77       26.63       26.49       26.33       26.15       25.97       25.76       25.53       25.27    
  12    27.94       27.94       27.93       27.92       27.90       27.88       27.85       27.82       27.78       27.74    
        27.69       27.64       27.58       27.52       27.45       27.38       27.29       27.20       27.11       27.00    
        26.89       26.77       26.63       26.49       26.33       26.15       25.97       25.76       25.53       25.27    
  13    27.94       27.94       27.93       27.92       27.90       27.88       27.85       27.82       27.78       27.74    
        27.69       27.64       27.58       27.52       27.45       27.38       27.29       27.20       27.11       27.00    
        26.89       26.77       26.63       26.49       26.33       26.15       25.97       25.76       25.53       25.27    
  14    27.94       27.94       27.93       27.92       27.90       27.88       27.85       27.82       27.78       27.74    
        27.69       27.64       27.58       27.52       27.45       27.38       27.29       27.20       27.11       27.00    
        26.89       26.77       26.63       26.49       26.33       26.15       25.97       25.76       25.53       25.27    
  15    27.94       27.94       27.93       27.92       27.90       27.88       27.85       27.82       27.78       27.74    
        27.69       27.64       27.58       27.52       27.45       27.38       27.29       27.20       27.11       27.00    
        26.89       26.77       26.63       26.49       26.33       26.15       25.97       25.76       25.53       25.27    
  16    27.94       27.94       27.93       27.92       27.90       27.88       27.85       27.82       27.78       27.74    
        27.69       27.64       27.58       27.52       27.45       27.38       27.29       27.20       27.11       27.00    
        26.89       26.77       26.63       26.49       26.33       26.15       25.97       25.76       25.53       25.27    
  17    27.94       27.94       27.93       27.92       27.90       27.88       27.85       27.82       27.78       27.74    
        27.69       27.64       27.58       27.52       27.45       27.38       27.29       27.20       27.11       27.00    
        26.89       26.77       26.63       26.49       26.33       26.15       25.97       25.76       25.53       25.27    
  18    27.94       27.94       27.93       27.92       27.90       27.88       27.85       27.82       27.78       27.74    
        27.69       27.64       27.58       27.52       27.45       27.38       27.29       27.20       27.11       27.00    
        26.89       26.77       26.63       26.49       26.33       26.15       25.97       25.76       25.53       25.27    
  19    27.94       27.94       27.93       27.92       27.90       27.88       27.85       27.82       27.78       27.74    
        27.69       27.64       27.58       27.52       27.45       27.38       27.29       27.20       27.11       27.00    
        26.89       26.77       26.63       26.49       26.33       26.15       25.97       25.76       25.53       25.27    
  20    27.94       27.94       27.93       27.92       27.90       27.88       27.85       27.82       27.78       27.74    
        27.69       27.64       27.58       27.52       27.45       27.38       27.29       27.20       27.11       27.00    
        26.89       26.77       26.63       26.49       26.33       26.15       25.97       25.76       25.53       25.27    
  21    27.94       27.94       27.93       27.92       27.90       27.88       27.85       27.82       27.78       27.74    
        27.69       27.64       27.58       27.52       27.45       27.38       27.29       27.20       27.11       27.00    
        26.89       26.77       26.63       26.49       26.33       26.15       25.97       25.76       25.53       25.27    
  22    27.94       27.94       27.93       27.92       27.90       27.88       27.85       27.82       27.78       27.74    
        27.69       27.64       27.58       27.52       27.45       27.38       27.29       27.20       27.11       27.00    
        26.89       26.77       26.63       26.49       26.33       26.15       25.97       25.76       25.53       25.27    
  23    27.94       27.94       27.93       27.92       27.90       27.88       27.85       27.82       27.78       27.74    
        27.69       27.64       27.58       27.52       27.45       27.38       27.29       27.20       27.11       27.00    
        26.89       26.77       26.63       26.49       26.33       26.15       25.97       25.76       25.53       25.27    
  24    27.94       27.94       27.93       27.92       27.90       27.88       27.85       27.82       27.78       27.74    
        27.69       27.64       27.58       27.52       27.45       27.38       27.29       27.20       27.11       27.00    
        26.89       26.77       26.63       26.49       26.33       26.15       25.97       25.76       25.53       25.27    
  25    27.94       27.94       27.93       27.92       27.90       27.88       27.85       27.82       27.78       27.74    
        27.69       27.64       27.58       27.52       27.45       27.38       27.29       27.20       27.11       27.00    
        26.89       26.77       26.63       26.49       26.33       26.15       25.97       25.76       25.53       25.27    
  26    27.94       27.94       27.93       27.92       27.90       27.88       27.85       27.82       27.78       27.74    
        27.69       27.64       27.58       27.52       27.45       27.38       27.29       27.20       27.11       27.00    
        26.89       26.77       26.63       26.49       26.33       26.15       25.97       25.76       25.53       25.27    
  27    27.94       27.94       27.93       27.92       27.90       27.88       27.85       27.82       27.78       27.74    
        27.69       27.64       27.58       27.52       27.45       27.38       27.29       27.20       27.11       27.00    
        26.89       26.77       26.63       26.49       26.33       26.15       25.97       25.76       25.53       25.27    
  28    27.94       27.94       27.93       27.92       27.90       27.88       27.85       27.82       27.78       27.74    
        27.69       27.64       27.58       27.52       27.45       27.38       27.29       27.20       27.11       27.00    
        26.89       26.77       26.63       26.49       26.33       26.15       25.97       25.76       25.53       25.27    
  29    27.94       27.94       27.93       27.92       27.90       27.88       27.85       27.82       27.78       27.74    
        27.69       27.64       27.58       27.52       27.45       27.38       27.29       27.20       27.11       27.00    
        26.89       26.77       26.63       26.49       26.33       26.15       25.97       25.76       25.53       25.27    
  30    27.94       27.94       27.93       27.92       27.90       27.88       27.85       27.82       27.78       27.74    
        27.69       27.64       27.58       27.52       27.45       27.38       27.29       27.20       27.11       27.00    
        26.89       26.77       26.63       26.49       26.33       26.15       25.97       25.76       25.53       25.27    

 HEAD WILL BE SAVED ON UNIT 1017 AT END OF TIME STEP   10, STRESS PERIOD    7


  VOLUME BUDGET FOR ENTIRE MODEL AT END OF TIME STEP   10, STRESS PERIOD   7
  ---------------------------------------------------------------------------------------------------

     CUMULATIVE VOLUME      L**3       RATES FOR THIS TIME STEP      L**3/T          PACKAGE NAME    
     ------------------                 ------------------------                     ----------------

           IN:                                      IN:
           ---                                      ---
              STO-SS =          17.9155                STO-SS =           0.1781     STORAGE         
              STO-SY =       11082.9250                STO-SY =         112.5716     STORAGE         
                 RCH =       26338.3644                   RCH =          47.6712     RCHA            
                 CHD =           0.0000                   CHD =           0.0000     CHD             

            TOTAL IN =       37439.2049              TOTAL IN =         160.4209

          OUT:                                     OUT:
          ----                                     ----
              STO-SS =           3.4062                STO-SS =           0.0000     STORAGE         
              STO-SY =        2177.4326                STO-SY =           0.0000     STORAGE         
                 RCH =           0.0000                   RCH =           0.0000     RCHA            
                 CHD =       35257.6687                   CHD =         160.4098     CHD             

           TOTAL OUT =       37438.5074             TOTAL OUT =         160.4098

            IN - OUT =           0.6975              IN - OUT =       1.1077E-02

 PERCENT DISCREPANCY =           0.00     PERCENT DISCREPANCY =           0.01




         TIME SUMMARY AT END OF TIME STEP   10 IN STRESS PERIOD    7
                    SECONDS     MINUTES      HOURS       DAYS        YEARS
                    -----------------------------------------------------------
   TIME STEP LENGTH 2.59200E+05  4320.0      72.000      3.0000     8.21355E-03
 STRESS PERIOD TIME 2.59200E+06  43200.      720.00      30.000     8.21355E-02
         TOTAL TIME 1.56384E+07 2.60640E+05  4344.0      181.00     0.49555    

 OUTPUT CONTROL FOR STRESS PERIOD 8 IS REPEATED USING SETTINGS FROM A PREVIOUS STRESS PERIOD.


 STRESS PERIOD 8 IS TRANSIENT


                 RECHARGE =  0.1095890E-02
 UBDSV1 SAVING           STO-SS ON UNIT   1016 AT TIME STEP      1, STRESS PERIOD      8
 UBDSV1 SAVING           STO-SY ON UNIT   1016 AT TIME STEP      1, STRESS PERIOD      8
 UBDSV1 SAVING     FLOW-JA-FACE ON UNIT   1016 AT TIME STEP      1, STRESS PERIOD      8
 UBDSV06 SAVING              RCH IN MODEL TEST_TRANS       PACKAGE TEST_TRANS      CONNECTED TO MODEL TEST_TRANS       PACKAGE RCHA             ON UNIT   1016 AT TIME STEP      1, STRESS PERIOD      8
 UBDSV06 SAVING              CHD IN MODEL TEST_TRANS       PACKAGE TEST_TRANS      CONNECTED TO MODEL TEST_TRANS       PACKAGE CHD              ON UNIT   1016 AT TIME STEP      1, STRESS PERIOD      8
1
  HEAD IN LAYER   1 AT END OF TIME STEP   1 IN STRESS PERIOD    8
  ---------------------------------------------------------------------------

            1           2           3           4           5           6           7           8           9          10
           11          12          13          14          15          16          17          18          19          20
           21          22          23          24          25          26          27          28          29          30
 ........................................................................................................................
   1    27.93       27.93       27.92       27.90       27.89       27.86       27.84       27.80       27.77       27.73    
        27.68       27.63       27.57       27.51       27.44       27.36       27.28       27.19       27.09       26.99    
        26.88       26.75       26.62       26.47       26.32       26.14       25.96       25.75       25.51       25.23    
   2    27.93       27.93       27.92       27.90       27.89       27.86       27.84       27.80       27.77       27.73    
        27.68       27.63       27.57       27.51       27.44       27.36       27.28       27.19       27.09       26.99    
        26.88       26.75       26.62       26.47       26.32       26.14       25.96       25.75       25.51       25.23    
   3    27.93       27.93       27.92       27.90       27.89       27.86       27.84       27.80       27.77       27.73    
        27.68       27.63       27.57       27.51       27.44       27.36       27.28       27.19       27.09       26.99    
        26.88       26.75       26.62       26.47       26.32       26.14       25.96       25.75       25.51       25.23    
   4    27.93       27.93       27.92       27.90       27.89       27.86       27.84       27.80       27.77       27.73    
        27.68       27.63       27.57       27.51       27.44       27.36       27.28       27.19       27.09       26.99    
        26.88       26.75       26.62       26.47       26.32       26.14       25.96       25.75       25.51       25.23    
   5    27.93       27.93       27.92       27.90       27.89       27.86       27.84       27.80       27.77       27.73    
        27.68       27.63       27.57       27.51       27.44       27.36       27.28       27.19       27.09       26.99    
        26.88       26.75       26.62       26.47       26.32       26.14       25.96       25.75       25.51       25.23    
   6    27.93       27.93       27.92       27.90       27.89       27.86       27.84       27.80       27.77       27.73    
        27.68       27.63       27.57       27.51       27.44       27.36       27.28       27.19       27.09       26.99    
        26.88       26.75       26.62       26.47       26.32       26.14       25.96       25.75       25.51       25.23    
   7    27.93       27.93       27.92       27.90       27.89       27.86       27.84       27.80       27.77       27.73    
        27.68       27.63       27.57       27.51       27.44       27.36       27.28       27.19       27.09       26.99    
        26.88       26.75       26.62       26.47       26.32       26.14       25.96       25.75       25.51       25.23    
   8    27.93       27.93       27.92       27.90       27.89       27.86       27.84       27.80       27.77       27.73    
        27.68       27.63       27.57       27.51       27.44       27.36       27.28       27.19       27.09       26.99    
        26.88       26.75       26.62       26.47       26.32       26.14       25.96       25.75       25.51       25.23    
   9    27.93       27.93       27.92       27.90       27.89       27.86       27.84       27.80       27.77       27.73    
        27.68       27.63       27.57       27.51       27.44       27.36       27.28       27.19       27.09       26.99    
        26.88       26.75       26.62       26.47       26.32       26.14       25.96       25.75       25.51       25.23    
  10    27.93       27.93       27.92       27.90       27.89       27.86       27.84       27.80       27.77       27.73    
        27.68       27.63       27.57       27.51       27.44       27.36       27.28       27.19       27.09       26.99    
        26.88       26.75       26.62       26.47       26.32       26.14       25.96       25.75       25.51       25.23    
  11    27.93       27.93       27.92       27.90       27.89       27.86       27.84       27.80       27.77       27.73    
        27.68       27.63       27.57       27.51       27.44       27.36       27.28       27.19       27.09       26.99    
        26.88       26.75       26.62       26.47       26.32       26.14       25.96       25.75       25.51       25.23    
  12    27.93       27.93       27.92       27.90       27.89       27.86       27.84       27.80       27.77       27.73    
        27.68       27.63       27.57       27.51       27.44       27.36       27.28       27.19       27.09       26.99    
        26.88       26.75       26.62       26.47       26.32       26.14       25.96       25.75       25.51       25.23    
  13    27.93       27.93       27.92       27.90       27.89       27.86       27.84       27.80       27.77       27.73    
        27.68       27.63       27.57       27.51       27.44       27.36       27.28       27.19       27.09       26.99    
        26.88       26.75       26.62       26.47       26.32       26.14       25.96       25.75       25.51       25.23    
  14    27.93       27.93       27.92       27.90       27.89       27.86       27.84       27.80       27.77       27.73    
        27.68       27.63       27.57       27.51       27.44       27.36       27.28       27.19       27.09       26.99    
        26.88       26.75       26.62       26.47       26.32       26.14       25.96       25.75       25.51       25.23    
  15    27.93       27.93       27.92       27.90       27.89       27.86       27.84       27.80       27.77       27.73    
        27.68       27.63       27.57       27.51       27.44       27.36       27.28       27.19       27.09       26.99    
        26.88       26.75       26.62       26.47       26.32       26.14       25.96       25.75       25.51       25.23    
  16    27.93       27.93       27.92       27.90       27.89       27.86       27.84       27.80       27.77       27.73    
        27.68       27.63       27.57       27.51       27.44       27.36       27.28       27.19       27.09       26.99    
        26.88       26.75       26.62       26.47       26.32       26.14       25.96       25.75       25.51       25.23    
  17    27.93       27.93       27.92       27.90       27.89       27.86       27.84       27.80       27.77       27.73    
        27.68       27.63       27.57       27.51       27.44       27.36       27.28       27.19       27.09       26.99    
        26.88       26.75       26.62       26.47       26.32       26.14       25.96       25.75       25.51       25.23    
  18    27.93       27.93       27.92       27.90       27.89       27.86       27.84       27.80       27.77       27.73    
        27.68       27.63       27.57       27.51       27.44       27.36       27.28       27.19       27.09       26.99    
        26.88       26.75       26.62       26.47       26.32       26.14       25.96       25.75       25.51       25.23    
  19    27.93       27.93       27.92       27.90       27.89       27.86       27.84       27.80       27.77       27.73    
        27.68       27.63       27.57       27.51       27.44       27.36       27.28       27.19       27.09       26.99    
        26.88       26.75       26.62       26.47       26.32       26.14       25.96       25.75       25.51       25.23    
  20    27.93       27.93       27.92       27.90       27.89       27.86       27.84       27.80       27.77       27.73    
        27.68       27.63       27.57       27.51       27.44       27.36       27.28       27.19       27.09       26.99    
        26.88       26.75       26.62       26.47       26.32       26.14       25.96       25.75       25.51       25.23    
  21    27.93       27.93       27.92       27.90       27.89       27.86       27.84       27.80       27.77       27.73    
        27.68       27.63       27.57       27.51       27.44       27.36       27.28       27.19       27.09       26.99    
        26.88       26.75       26.62       26.47       26.32       26.14       25.96       25.75       25.51       25.23    
  22    27.93       27.93       27.92       27.90       27.89       27.86       27.84       27.80       27.77       27.73    
        27.68       27.63       27.57       27.51       27.44       27.36       27.28       27.19       27.09       26.99    
        26.88       26.75       26.62       26.47       26.32       26.14       25.96       25.75       25.51       25.23    
  23    27.93       27.93       27.92       27.90       27.89       27.86       27.84       27.80       27.77       27.73    
        27.68       27.63       27.57       27.51       27.44       27.36       27.28       27.19       27.09       26.99    
        26.88       26.75       26.62       26.47       26.32       26.14       25.96       25.75       25.51       25.23    
  24    27.93       27.93       27.92       27.90       27.89       27.86       27.84       27.80       27.77       27.73    
        27.68       27.63       27.57       27.51       27.44       27.36       27.28       27.19       27.09       26.99    
        26.88       26.75       26.62       26.47       26.32       26.14       25.96       25.75       25.51       25.23    
  25    27.93       27.93       27.92       27.90       27.89       27.86       27.84       27.80       27.77       27.73    
        27.68       27.63       27.57       27.51       27.44       27.36       27.28       27.19       27.09       26.99    
        26.88       26.75       26.62       26.47       26.32       26.14       25.96       25.75       25.51       25.23    
  26    27.93       27.93       27.92       27.90       27.89       27.86       27.84       27.80       27.77       27.73    
        27.68       27.63       27.57       27.51       27.44       27.36       27.28       27.19       27.09       26.99    
        26.88       26.75       26.62       26.47       26.32       26.14       25.96       25.75       25.51       25.23    
  27    27.93       27.93       27.92       27.90       27.89       27.86       27.84       27.80       27.77       27.73    
        27.68       27.63       27.57       27.51       27.44       27.36       27.28       27.19       27.09       26.99    
        26.88       26.75       26.62       26.47       26.32       26.14       25.96       25.75       25.51       25.23    
  28    27.93       27.93       27.92       27.90       27.89       27.86       27.84       27.80       27.77       27.73    
        27.68       27.63       27.57       27.51       27.44       27.36       27.28       27.19       27.09       26.99    
        26.88       26.75       26.62       26.47       26.32       26.14       25.96       25.75       25.51       25.23    
  29    27.93       27.93       27.92       27.90       27.89       27.86       27.84       27.80       27.77       27.73    
        27.68       27.63       27.57       27.51       27.44       27.36       27.28       27.19       27.09       26.99    
        26.88       26.75       26.62       26.47       26.32       26.14       25.96       25.75       25.51       25.23    
  30    27.93       27.93       27.92       27.90       27.89       27.86       27.84       27.80       27.77       27.73    
        27.68       27.63       27.57       27.51       27.44       27.36       27.28       27.19       27.09       26.99    
        26.88       26.75       26.62       26.47       26.32       26.14       25.96       25.75       25.51       25.23    

 HEAD WILL BE SAVED ON UNIT 1017 AT END OF TIME STEP    1, STRESS PERIOD    8



         TIME SUMMARY AT END OF TIME STEP    1 IN STRESS PERIOD    8
                    SECONDS     MINUTES      HOURS       DAYS        YEARS
                    -----------------------------------------------------------
   TIME STEP LENGTH 2.59200E+05  4320.0      72.000      3.0000     8.21355E-03
 STRESS PERIOD TIME 2.59200E+05  4320.0      72.000      3.0000     8.21355E-03
         TOTAL TIME 1.58976E+07 2.64960E+05  4416.0      184.00     0.50376    
 UBDSV1 SAVING           STO-SS ON UNIT   1016 AT TIME STEP      2, STRESS PERIOD      8
 UBDSV1 SAVING           STO-SY ON UNIT   1016 AT TIME STEP      2, STRESS PERIOD      8
 UBDSV1 SAVING     FLOW-JA-FACE ON UNIT   1016 AT TIME STEP      2, STRESS PERIOD      8
 UBDSV06 SAVING              RCH IN MODEL TEST_TRANS       PACKAGE TEST_TRANS      CONNECTED TO MODEL TEST_TRANS       PACKAGE RCHA             ON UNIT   1016 AT TIME STEP      2, STRESS PERIOD      8
 UBDSV06 SAVING              CHD IN MODEL TEST_TRANS       PACKAGE TEST_TRANS      CONNECTED TO MODEL TEST_TRANS       PACKAGE CHD              ON UNIT   1016 AT TIME STEP      2, STRESS PERIOD      8

 HEAD WILL BE SAVED ON UNIT 1017 AT END OF TIME STEP    2, STRESS PERIOD    8
 UBDSV1 SAVING           STO-SS ON UNIT   1016 AT TIME STEP      3, STRESS PERIOD      8
 UBDSV1 SAVING           STO-SY ON UNIT   1016 AT TIME STEP      3, STRESS PERIOD      8
 UBDSV1 SAVING     FLOW-JA-FACE ON UNIT   1016 AT TIME STEP      3, STRESS PERIOD      8
 UBDSV06 SAVING              RCH IN MODEL TEST_TRANS       PACKAGE TEST_TRANS      CONNECTED TO MODEL TEST_TRANS       PACKAGE RCHA             ON UNIT   1016 AT TIME STEP      3, STRESS PERIOD      8
 UBDSV06 SAVING              CHD IN MODEL TEST_TRANS       PACKAGE TEST_TRANS      CONNECTED TO MODEL TEST_TRANS       PACKAGE CHD              ON UNIT   1016 AT TIME STEP      3, STRESS PERIOD      8

 HEAD WILL BE SAVED ON UNIT 1017 AT END OF TIME STEP    3, STRESS PERIOD    8
 UBDSV1 SAVING           STO-SS ON UNIT   1016 AT TIME STEP      4, STRESS PERIOD      8
 UBDSV1 SAVING           STO-SY ON UNIT   1016 AT TIME STEP      4, STRESS PERIOD      8
 UBDSV1 SAVING     FLOW-JA-FACE ON UNIT   1016 AT TIME STEP      4, STRESS PERIOD      8
 UBDSV06 SAVING              RCH IN MODEL TEST_TRANS       PACKAGE TEST_TRANS      CONNECTED TO MODEL TEST_TRANS       PACKAGE RCHA             ON UNIT   1016 AT TIME STEP      4, STRESS PERIOD      8
 UBDSV06 SAVING              CHD IN MODEL TEST_TRANS       PACKAGE TEST_TRANS      CONNECTED TO MODEL TEST_TRANS       PACKAGE CHD              ON UNIT   1016 AT TIME STEP      4, STRESS PERIOD      8

 HEAD WILL BE SAVED ON UNIT 1017 AT END OF TIME STEP    4, STRESS PERIOD    8
 UBDSV1 SAVING           STO-SS ON UNIT   1016 AT TIME STEP      5, STRESS PERIOD      8
 UBDSV1 SAVING           STO-SY ON UNIT   1016 AT TIME STEP      5, STRESS PERIOD      8
 UBDSV1 SAVING     FLOW-JA-FACE ON UNIT   1016 AT TIME STEP      5, STRESS PERIOD      8
 UBDSV06 SAVING              RCH IN MODEL TEST_TRANS       PACKAGE TEST_TRANS      CONNECTED TO MODEL TEST_TRANS       PACKAGE RCHA             ON UNIT   1016 AT TIME STEP      5, STRESS PERIOD      8
 UBDSV06 SAVING              CHD IN MODEL TEST_TRANS       PACKAGE TEST_TRANS      CONNECTED TO MODEL TEST_TRANS       PACKAGE CHD              ON UNIT   1016 AT TIME STEP      5, STRESS PERIOD      8

 HEAD WILL BE SAVED ON UNIT 1017 AT END OF TIME STEP    5, STRESS PERIOD    8
 UBDSV1 SAVING           STO-SS ON UNIT   1016 AT TIME STEP      6, STRESS PERIOD      8
 UBDSV1 SAVING           STO-SY ON UNIT   1016 AT TIME STEP      6, STRESS PERIOD      8
 UBDSV1 SAVING     FLOW-JA-FACE ON UNIT   1016 AT TIME STEP      6, STRESS PERIOD      8
 UBDSV06 SAVING              RCH IN MODEL TEST_TRANS       PACKAGE TEST_TRANS      CONNECTED TO MODEL TEST_TRANS       PACKAGE RCHA             ON UNIT   1016 AT TIME STEP      6, STRESS PERIOD      8
 UBDSV06 SAVING              CHD IN MODEL TEST_TRANS       PACKAGE TEST_TRANS      CONNECTED TO MODEL TEST_TRANS       PACKAGE CHD              ON UNIT   1016 AT TIME STEP      6, STRESS PERIOD      8

 HEAD WILL BE SAVED ON UNIT 1017 AT END OF TIME STEP    6, STRESS PERIOD    8
 UBDSV1 SAVING           STO-SS ON UNIT   1016 AT TIME STEP      7, STRESS PERIOD      8
 UBDSV1 SAVING           STO-SY ON UNIT   1016 AT TIME STEP      7, STRESS PERIOD      8
 UBDSV1 SAVING     FLOW-JA-FACE ON UNIT   1016 AT TIME STEP      7, STRESS PERIOD      8
 UBDSV06 SAVING              RCH IN MODEL TEST_TRANS       PACKAGE TEST_TRANS      CONNECTED TO MODEL TEST_TRANS       PACKAGE RCHA             ON UNIT   1016 AT TIME STEP      7, STRESS PERIOD      8
 UBDSV06 SAVING              CHD IN MODEL TEST_TRANS       PACKAGE TEST_TRANS      CONNECTED TO MODEL TEST_TRANS       PACKAGE CHD              ON UNIT   1016 AT TIME STEP      7, STRESS PERIOD      8

 HEAD WILL BE SAVED ON UNIT 1017 AT END OF TIME STEP    7, STRESS PERIOD    8
 UBDSV1 SAVING           STO-SS ON UNIT   1016 AT TIME STEP      8, STRESS PERIOD      8
 UBDSV1 SAVING           STO-SY ON UNIT   1016 AT TIME STEP      8, STRESS PERIOD      8
 UBDSV1 SAVING     FLOW-JA-FACE ON UNIT   1016 AT TIME STEP      8, STRESS PERIOD      8
 UBDSV06 SAVING              RCH IN MODEL TEST_TRANS       PACKAGE TEST_TRANS      CONNECTED TO MODEL TEST_TRANS       PACKAGE RCHA             ON UNIT   1016 AT TIME STEP      8, STRESS PERIOD      8
 UBDSV06 SAVING              CHD IN MODEL TEST_TRANS       PACKAGE TEST_TRANS      CONNECTED TO MODEL TEST_TRANS       PACKAGE CHD              ON UNIT   1016 AT TIME STEP      8, STRESS PERIOD      8

 HEAD WILL BE SAVED ON UNIT 1017 AT END OF TIME STEP    8, STRESS PERIOD    8
 UBDSV1 SAVING           STO-SS ON UNIT   1016 AT TIME STEP      9, STRESS PERIOD      8
 UBDSV1 SAVING           STO-SY ON UNIT   1016 AT TIME STEP      9, STRESS PERIOD      8
 UBDSV1 SAVING     FLOW-JA-FACE ON UNIT   1016 AT TIME STEP      9, STRESS PERIOD      8
 UBDSV06 SAVING              RCH IN MODEL TEST_TRANS       PACKAGE TEST_TRANS      CONNECTED TO MODEL TEST_TRANS       PACKAGE RCHA             ON UNIT   1016 AT TIME STEP      9, STRESS PERIOD      8
 UBDSV06 SAVING              CHD IN MODEL TEST_TRANS       PACKAGE TEST_TRANS      CONNECTED TO MODEL TEST_TRANS       PACKAGE CHD              ON UNIT   1016 AT TIME STEP      9, STRESS PERIOD      8

 HEAD WILL BE SAVED ON UNIT 1017 AT END OF TIME STEP    9, STRESS PERIOD    8
 UBDSV1 SAVING           STO-SS ON UNIT   1016 AT TIME STEP     10, STRESS PERIOD      8
 UBDSV1 SAVING           STO-SY ON UNIT   1016 AT TIME STEP     10, STRESS PERIOD      8
 UBDSV1 SAVING     FLOW-JA-FACE ON UNIT   1016 AT TIME STEP     10, STRESS PERIOD      8
 UBDSV06 SAVING              RCH IN MODEL TEST_TRANS       PACKAGE TEST_TRANS      CONNECTED TO MODEL TEST_TRANS       PACKAGE RCHA             ON UNIT   1016 AT TIME STEP     10, STRESS PERIOD      8
 UBDSV06 SAVING              CHD IN MODEL TEST_TRANS       PACKAGE TEST_TRANS      CONNECTED TO MODEL TEST_TRANS       PACKAGE CHD              ON UNIT   1016 AT TIME STEP     10, STRESS PERIOD      8
1
  HEAD IN LAYER   1 AT END OF TIME STEP  10 IN STRESS PERIOD    8
  ---------------------------------------------------------------------------

            1           2           3           4           5           6           7           8           9          10
           11          12          13          14          15          16          17          18          19          20
           21          22          23          24          25          26          27          28          29          30
 ........................................................................................................................
   1    27.83       27.82       27.81       27.80       27.78       27.76       27.73       27.70       27.66       27.62    
        27.57       27.52       27.46       27.40       27.33       27.26       27.18       27.09       26.99       26.89    
        26.78       26.66       26.53       26.39       26.24       26.08       25.90       25.70       25.48       25.23    
   2    27.83       27.82       27.81       27.80       27.78       27.76       27.73       27.70       27.66       27.62    
        27.57       27.52       27.46       27.40       27.33       27.26       27.18       27.09       26.99       26.89    
        26.78       26.66       26.53       26.39       26.24       26.08       25.90       25.70       25.48       25.23    
   3    27.83       27.82       27.81       27.80       27.78       27.76       27.73       27.70       27.66       27.62    
        27.57       27.52       27.46       27.40       27.33       27.26       27.18       27.09       26.99       26.89    
        26.78       26.66       26.53       26.39       26.24       26.08       25.90       25.70       25.48       25.23    
   4    27.83       27.82       27.81       27.80       27.78       27.76       27.73       27.70       27.66       27.62    
        27.57       27.52       27.46       27.40       27.33       27.26       27.18       27.09       26.99       26.89    
        26.78       26.66       26.53       26.39       26.24       26.08       25.90       25.70       25.48       25.23    
   5    27.83       27.82       27.81       27.80       27.78       27.76       27.73       27.70       27.66       27.62    
        27.57       27.52       27.46       27.40       27.33       27.26       27.18       27.09       26.99       26.89    
        26.78       26.66       26.53       26.39       26.24       26.08       25.90       25.70       25.48       25.23    
   6    27.83       27.82       27.81       27.80       27.78       27.76       27.73       27.70       27.66       27.62    
        27.57       27.52       27.46       27.40       27.33       27.26       27.18       27.09       26.99       26.89    
        26.78       26.66       26.53       26.39       26.24       26.08       25.90       25.70       25.48       25.23    
   7    27.83       27.82       27.81       27.80       27.78       27.76       27.73       27.70       27.66       27.62    
        27.57       27.52       27.46       27.40       27.33       27.26       27.18       27.09       26.99       26.89    
        26.78       26.66       26.53       26.39       26.24       26.08       25.90       25.70       25.48       25.23    
   8    27.83       27.82       27.81       27.80       27.78       27.76       27.73       27.70       27.66       27.62    
        27.57       27.52       27.46       27.40       27.33       27.26       27.18       27.09       26.99       26.89    
        26.78       26.66       26.53       26.39       26.24       26.08       25.90       25.70       25.48       25.23    
   9    27.83       27.82       27.81       27.80       27.78       27.76       27.73       27.70       27.66       27.62    
        27.57       27.52       27.46       27.40       27.33       27.26       27.18       27.09       26.99       26.89    
        26.78       26.66       26.53       26.39       26.24       26.08       25.90       25.70       25.48       25.23    
  10    27.83       27.82       27.81       27.80       27.78       27.76       27.73       27.70       27.66       27.62    
        27.57       27.52       27.46       27.40       27.33       27.26       27.18       27.09       26.99       26.89    
        26.78       26.66       26.53       26.39       26.24       26.08       25.90       25.70       25.48       25.23    
  11    27.83       27.82       27.81       27.80       27.78       27.76       27.73       27.70       27.66       27.62    
        27.57       27.52       27.46       27.40       27.33       27.26       27.18       27.09       26.99       26.89    
        26.78       26.66       26.53       26.39       26.24       26.08       25.90       25.70       25.48       25.23    
  12    27.83       27.82       27.81       27.80       27.78       27.76       27.73       27.70       27.66       27.62    
        27.57       27.52       27.46       27.40       27.33       27.26       27.18       27.09       26.99       26.89    
        26.78       26.66       26.53       26.39       26.24       26.08       25.90       25.70       25.48       25.23    
  13    27.83       27.82       27.81       27.80       27.78       27.76       27.73       27.70       27.66       27.62    
        27.57       27.52       27.46       27.40       27.33       27.26       27.18       27.09       26.99       26.89    
        26.78       26.66       26.53       26.39       26.24       26.08       25.90       25.70       25.48       25.23    
  14    27.83       27.82       27.81       27.80       27.78       27.76       27.73       27.70       27.66       27.62    
        27.57       27.52       27.46       27.40       27.33       27.26       27.18       27.09       26.99       26.89    
        26.78       26.66       26.53       26.39       26.24       26.08       25.90       25.70       25.48       25.23    
  15    27.83       27.82       27.81       27.80       27.78       27.76       27.73       27.70       27.66       27.62    
        27.57       27.52       27.46       27.40       27.33       27.26       27.18       27.09       26.99       26.89    
        26.78       26.66       26.53       26.39       26.24       26.08       25.90       25.70       25.48       25.23    
  16    27.83       27.82       27.81       27.80       27.78       27.76       27.73       27.70       27.66       27.62    
        27.57       27.52       27.46       27.40       27.33       27.26       27.18       27.09       26.99       26.89    
        26.78       26.66       26.53       26.39       26.24       26.08       25.90       25.70       25.48       25.23    
  17    27.83       27.82       27.81       27.80       27.78       27.76       27.73       27.70       27.66       27.62    
        27.57       27.52       27.46       27.40       27.33       27.26       27.18       27.09       26.99       26.89    
        26.78       26.66       26.53       26.39       26.24       26.08       25.90       25.70       25.48       25.23    
  18    27.83       27.82       27.81       27.80       27.78       27.76       27.73       27.70       27.66       27.62    
        27.57       27.52       27.46       27.40       27.33       27.26       27.18       27.09       26.99       26.89    
        26.78       26.66       26.53       26.39       26.24       26.08       25.90       25.70       25.48       25.23    
  19    27.83       27.82       27.81       27.80       27.78       27.76       27.73       27.70       27.66       27.62    
        27.57       27.52       27.46       27.40       27.33       27.26       27.18       27.09       26.99       26.89    
        26.78       26.66       26.53       26.39       26.24       26.08       25.90       25.70       25.48       25.23    
  20    27.83       27.82       27.81       27.80       27.78       27.76       27.73       27.70       27.66       27.62    
        27.57       27.52       27.46       27.40       27.33       27.26       27.18       27.09       26.99       26.89    
        26.78       26.66       26.53       26.39       26.24       26.08       25.90       25.70       25.48       25.23    
  21    27.83       27.82       27.81       27.80       27.78       27.76       27.73       27.70       27.66       27.62    
        27.57       27.52       27.46       27.40       27.33       27.26       27.18       27.09       26.99       26.89    
        26.78       26.66       26.53       26.39       26.24       26.08       25.90       25.70       25.48       25.23    
  22    27.83       27.82       27.81       27.80       27.78       27.76       27.73       27.70       27.66       27.62    
        27.57       27.52       27.46       27.40       27.33       27.26       27.18       27.09       26.99       26.89    
        26.78       26.66       26.53       26.39       26.24       26.08       25.90       25.70       25.48       25.23    
  23    27.83       27.82       27.81       27.80       27.78       27.76       27.73       27.70       27.66       27.62    
        27.57       27.52       27.46       27.40       27.33       27.26       27.18       27.09       26.99       26.89    
        26.78       26.66       26.53       26.39       26.24       26.08       25.90       25.70       25.48       25.23    
  24    27.83       27.82       27.81       27.80       27.78       27.76       27.73       27.70       27.66       27.62    
        27.57       27.52       27.46       27.40       27.33       27.26       27.18       27.09       26.99       26.89    
        26.78       26.66       26.53       26.39       26.24       26.08       25.90       25.70       25.48       25.23    
  25    27.83       27.82       27.81       27.80       27.78       27.76       27.73       27.70       27.66       27.62    
        27.57       27.52       27.46       27.40       27.33       27.26       27.18       27.09       26.99       26.89    
        26.78       26.66       26.53       26.39       26.24       26.08       25.90       25.70       25.48       25.23    
  26    27.83       27.82       27.81       27.80       27.78       27.76       27.73       27.70       27.66       27.62    
        27.57       27.52       27.46       27.40       27.33       27.26       27.18       27.09       26.99       26.89    
        26.78       26.66       26.53       26.39       26.24       26.08       25.90       25.70       25.48       25.23    
  27    27.83       27.82       27.81       27.80       27.78       27.76       27.73       27.70       27.66       27.62    
        27.57       27.52       27.46       27.40       27.33       27.26       27.18       27.09       26.99       26.89    
        26.78       26.66       26.53       26.39       26.24       26.08       25.90       25.70       25.48       25.23    
  28    27.83       27.82       27.81       27.80       27.78       27.76       27.73       27.70       27.66       27.62    
        27.57       27.52       27.46       27.40       27.33       27.26       27.18       27.09       26.99       26.89    
        26.78       26.66       26.53       26.39       26.24       26.08       25.90       25.70       25.48       25.23    
  29    27.83       27.82       27.81       27.80       27.78       27.76       27.73       27.70       27.66       27.62    
        27.57       27.52       27.46       27.40       27.33       27.26       27.18       27.09       26.99       26.89    
        26.78       26.66       26.53       26.39       26.24       26.08       25.90       25.70       25.48       25.23    
  30    27.83       27.82       27.81       27.80       27.78       27.76       27.73       27.70       27.66       27.62    
        27.57       27.52       27.46       27.40       27.33       27.26       27.18       27.09       26.99       26.89    
        26.78       26.66       26.53       26.39       26.24       26.08       25.90       25.70       25.48       25.23    

 HEAD WILL BE SAVED ON UNIT 1017 AT END OF TIME STEP   10, STRESS PERIOD    8


  VOLUME BUDGET FOR ENTIRE MODEL AT END OF TIME STEP   10, STRESS PERIOD   8
  ---------------------------------------------------------------------------------------------------

     CUMULATIVE VOLUME      L**3       RATES FOR THIS TIME STEP      L**3/T          PACKAGE NAME    
     ------------------                 ------------------------                     ----------------

           IN:                                      IN:
           ---                                      ---
              STO-SS =          20.8496                STO-SS =       8.7146E-02     STORAGE         
              STO-SY =       12942.7123                STO-SY =          55.1728     STORAGE         
                 RCH =       29198.6373                   RCH =          95.3424     RCHA            
                 CHD =           0.0000                   CHD =           0.0000     CHD             

            TOTAL IN =       42162.1991              TOTAL IN =         150.6024

          OUT:                                     OUT:
          ----                                     ----
              STO-SS =           3.4062                STO-SS =           0.0000     STORAGE         
              STO-SY =        2177.4326                STO-SY =           0.0000     STORAGE         
                 RCH =           0.0000                   RCH =           0.0000     RCHA            
                 CHD =       39980.5391                   CHD =         150.5986     CHD             

           TOTAL OUT =       42161.3778             TOTAL OUT =         150.5986

            IN - OUT =           0.8213              IN - OUT =       3.7654E-03

 PERCENT DISCREPANCY =           0.00     PERCENT DISCREPANCY =           0.00




         TIME SUMMARY AT END OF TIME STEP   10 IN STRESS PERIOD    8
                    SECONDS     MINUTES      HOURS       DAYS        YEARS
                    -----------------------------------------------------------
   TIME STEP LENGTH 2.59200E+05  4320.0      72.000      3.0000     8.21355E-03
 STRESS PERIOD TIME 2.59200E+06  43200.      720.00      30.000     8.21355E-02
         TOTAL TIME 1.82304E+07 3.03840E+05  5064.0      211.00     0.57769    

 OUTPUT CONTROL FOR STRESS PERIOD 9 IS REPEATED USING SETTINGS FROM A PREVIOUS STRESS PERIOD.


 STRESS PERIOD 9 IS TRANSIENT


                 RECHARGE =  0.1643840E-02
 UBDSV1 SAVING           STO-SS ON UNIT   1016 AT TIME STEP      1, STRESS PERIOD      9
 UBDSV1 SAVING           STO-SY ON UNIT   1016 AT TIME STEP      1, STRESS PERIOD      9
 UBDSV1 SAVING     FLOW-JA-FACE ON UNIT   1016 AT TIME STEP      1, STRESS PERIOD      9
 UBDSV06 SAVING              RCH IN MODEL TEST_TRANS       PACKAGE TEST_TRANS      CONNECTED TO MODEL TEST_TRANS       PACKAGE RCHA             ON UNIT   1016 AT TIME STEP      1, STRESS PERIOD      9
 UBDSV06 SAVING              CHD IN MODEL TEST_TRANS       PACKAGE TEST_TRANS      CONNECTED TO MODEL TEST_TRANS       PACKAGE CHD              ON UNIT   1016 AT TIME STEP      1, STRESS PERIOD      9
1
  HEAD IN LAYER   1 AT END OF TIME STEP   1 IN STRESS PERIOD    9
  ---------------------------------------------------------------------------

            1           2           3           4           5           6           7           8           9          10
           11          12          13          14          15          16          17          18          19          20
           21          22          23          24          25          26          27          28          29          30
 ........................................................................................................................
   1    27.82       27.82       27.81       27.80       27.78       27.75       27.73       27.70       27.66       27.62    
        27.57       27.52       27.46       27.40       27.33       27.25       27.17       27.09       26.99       26.89    
        26.78       26.66       26.53       26.39       26.24       26.07       25.89       25.68       25.44       25.15    
   2    27.82       27.82       27.81       27.80       27.78       27.75       27.73       27.70       27.66       27.62    
        27.57       27.52       27.46       27.40       27.33       27.25       27.17       27.09       26.99       26.89    
        26.78       26.66       26.53       26.39       26.24       26.07       25.89       25.68       25.44       25.15    
   3    27.82       27.82       27.81       27.80       27.78       27.75       27.73       27.70       27.66       27.62    
        27.57       27.52       27.46       27.40       27.33       27.25       27.17       27.09       26.99       26.89    
        26.78       26.66       26.53       26.39       26.24       26.07       25.89       25.68       25.44       25.15    
   4    27.82       27.82       27.81       27.80       27.78       27.75       27.73       27.70       27.66       27.62    
        27.57       27.52       27.46       27.40       27.33       27.25       27.17       27.09       26.99       26.89    
        26.78       26.66       26.53       26.39       26.24       26.07       25.89       25.68       25.44       25.15    
   5    27.82       27.82       27.81       27.80       27.78       27.75       27.73       27.70       27.66       27.62    
        27.57       27.52       27.46       27.40       27.33       27.25       27.17       27.09       26.99       26.89    
        26.78       26.66       26.53       26.39       26.24       26.07       25.89       25.68       25.44       25.15    
   6    27.82       27.82       27.81       27.80       27.78       27.75       27.73       27.70       27.66       27.62    
        27.57       27.52       27.46       27.40       27.33       27.25       27.17       27.09       26.99       26.89    
        26.78       26.66       26.53       26.39       26.24       26.07       25.89       25.68       25.44       25.15    
   7    27.82       27.82       27.81       27.80       27.78       27.75       27.73       27.70       27.66       27.62    
        27.57       27.52       27.46       27.40       27.33       27.25       27.17       27.09       26.99       26.89    
        26.78       26.66       26.53       26.39       26.24       26.07       25.89       25.68       25.44       25.15    
   8    27.82       27.82       27.81       27.80       27.78       27.75       27.73       27.70       27.66       27.62    
        27.57       27.52       27.46       27.40       27.33       27.25       27.17       27.09       26.99       26.89    
        26.78       26.66       26.53       26.39       26.24       26.07       25.89       25.68       25.44       25.15    
   9    27.82       27.82       27.81       27.80       27.78       27.75       27.73       27.70       27.66       27.62    
        27.57       27.52       27.46       27.40       27.33       27.25       27.17       27.09       26.99       26.89    
        26.78       26.66       26.53       26.39       26.24       26.07       25.89       25.68       25.44       25.15    
  10    27.82       27.82       27.81       27.80       27.78       27.75       27.73       27.70       27.66       27.62    
        27.57       27.52       27.46       27.40       27.33       27.25       27.17       27.09       26.99       26.89    
        26.78       26.66       26.53       26.39       26.24       26.07       25.89       25.68       25.44       25.15    
  11    27.82       27.82       27.81       27.80       27.78       27.75       27.73       27.70       27.66       27.62    
        27.57       27.52       27.46       27.40       27.33       27.25       27.17       27.09       26.99       26.89    
        26.78       26.66       26.53       26.39       26.24       26.07       25.89       25.68       25.44       25.15    
  12    27.82       27.82       27.81       27.80       27.78       27.75       27.73       27.70       27.66       27.62    
        27.57       27.52       27.46       27.40       27.33       27.25       27.17       27.09       26.99       26.89    
        26.78       26.66       26.53       26.39       26.24       26.07       25.89       25.68       25.44       25.15    
  13    27.82       27.82       27.81       27.80       27.78       27.75       27.73       27.70       27.66       27.62    
        27.57       27.52       27.46       27.40       27.33       27.25       27.17       27.09       26.99       26.89    
        26.78       26.66       26.53       26.39       26.24       26.07       25.89       25.68       25.44       25.15    
  14    27.82       27.82       27.81       27.80       27.78       27.75       27.73       27.70       27.66       27.62    
        27.57       27.52       27.46       27.40       27.33       27.25       27.17       27.09       26.99       26.89    
        26.78       26.66       26.53       26.39       26.24       26.07       25.89       25.68       25.44       25.15    
  15    27.82       27.82       27.81       27.80       27.78       27.75       27.73       27.70       27.66       27.62    
        27.57       27.52       27.46       27.40       27.33       27.25       27.17       27.09       26.99       26.89    
        26.78       26.66       26.53       26.39       26.24       26.07       25.89       25.68       25.44       25.15    
  16    27.82       27.82       27.81       27.80       27.78       27.75       27.73       27.70       27.66       27.62    
        27.57       27.52       27.46       27.40       27.33       27.25       27.17       27.09       26.99       26.89    
        26.78       26.66       26.53       26.39       26.24       26.07       25.89       25.68       25.44       25.15    
  17    27.82       27.82       27.81       27.80       27.78       27.75       27.73       27.70       27.66       27.62    
        27.57       27.52       27.46       27.40       27.33       27.25       27.17       27.09       26.99       26.89    
        26.78       26.66       26.53       26.39       26.24       26.07       25.89       25.68       25.44       25.15    
  18    27.82       27.82       27.81       27.80       27.78       27.75       27.73       27.70       27.66       27.62    
        27.57       27.52       27.46       27.40       27.33       27.25       27.17       27.09       26.99       26.89    
        26.78       26.66       26.53       26.39       26.24       26.07       25.89       25.68       25.44       25.15    
  19    27.82       27.82       27.81       27.80       27.78       27.75       27.73       27.70       27.66       27.62    
        27.57       27.52       27.46       27.40       27.33       27.25       27.17       27.09       26.99       26.89    
        26.78       26.66       26.53       26.39       26.24       26.07       25.89       25.68       25.44       25.15    
  20    27.82       27.82       27.81       27.80       27.78       27.75       27.73       27.70       27.66       27.62    
        27.57       27.52       27.46       27.40       27.33       27.25       27.17       27.09       26.99       26.89    
        26.78       26.66       26.53       26.39       26.24       26.07       25.89       25.68       25.44       25.15    
  21    27.82       27.82       27.81       27.80       27.78       27.75       27.73       27.70       27.66       27.62    
        27.57       27.52       27.46       27.40       27.33       27.25       27.17       27.09       26.99       26.89    
        26.78       26.66       26.53       26.39       26.24       26.07       25.89       25.68       25.44       25.15    
  22    27.82       27.82       27.81       27.80       27.78       27.75       27.73       27.70       27.66       27.62    
        27.57       27.52       27.46       27.40       27.33       27.25       27.17       27.09       26.99       26.89    
        26.78       26.66       26.53       26.39       26.24       26.07       25.89       25.68       25.44       25.15    
  23    27.82       27.82       27.81       27.80       27.78       27.75       27.73       27.70       27.66       27.62    
        27.57       27.52       27.46       27.40       27.33       27.25       27.17       27.09       26.99       26.89    
        26.78       26.66       26.53       26.39       26.24       26.07       25.89       25.68       25.44       25.15    
  24    27.82       27.82       27.81       27.80       27.78       27.75       27.73       27.70       27.66       27.62    
        27.57       27.52       27.46       27.40       27.33       27.25       27.17       27.09       26.99       26.89    
        26.78       26.66       26.53       26.39       26.24       26.07       25.89       25.68       25.44       25.15    
  25    27.82       27.82       27.81       27.80       27.78       27.75       27.73       27.70       27.66       27.62    
        27.57       27.52       27.46       27.40       27.33       27.25       27.17       27.09       26.99       26.89    
        26.78       26.66       26.53       26.39       26.24       26.07       25.89       25.68       25.44       25.15    
  26    27.82       27.82       27.81       27.80       27.78       27.75       27.73       27.70       27.66       27.62    
        27.57       27.52       27.46       27.40       27.33       27.25       27.17       27.09       26.99       26.89    
        26.78       26.66       26.53       26.39       26.24       26.07       25.89       25.68       25.44       25.15    
  27    27.82       27.82       27.81       27.80       27.78       27.75       27.73       27.70       27.66       27.62    
        27.57       27.52       27.46       27.40       27.33       27.25       27.17       27.09       26.99       26.89    
        26.78       26.66       26.53       26.39       26.24       26.07       25.89       25.68       25.44       25.15    
  28    27.82       27.82       27.81       27.80       27.78       27.75       27.73       27.70       27.66       27.62    
        27.57       27.52       27.46       27.40       27.33       27.25       27.17       27.09       26.99       26.89    
        26.78       26.66       26.53       26.39       26.24       26.07       25.89       25.68       25.44       25.15    
  29    27.82       27.82       27.81       27.80       27.78       27.75       27.73       27.70       27.66       27.62    
        27.57       27.52       27.46       27.40       27.33       27.25       27.17       27.09       26.99       26.89    
        26.78       26.66       26.53       26.39       26.24       26.07       25.89       25.68       25.44       25.15    
  30    27.82       27.82       27.81       27.80       27.78       27.75       27.73       27.70       27.66       27.62    
        27.57       27.52       27.46       27.40       27.33       27.25       27.17       27.09       26.99       26.89    
        26.78       26.66       26.53       26.39       26.24       26.07       25.89       25.68       25.44       25.15    

 HEAD WILL BE SAVED ON UNIT 1017 AT END OF TIME STEP    1, STRESS PERIOD    9



         TIME SUMMARY AT END OF TIME STEP    1 IN STRESS PERIOD    9
                    SECONDS     MINUTES      HOURS       DAYS        YEARS
                    -----------------------------------------------------------
   TIME STEP LENGTH 2.59200E+05  4320.0      72.000      3.0000     8.21355E-03
 STRESS PERIOD TIME 2.59200E+05  4320.0      72.000      3.0000     8.21355E-03
         TOTAL TIME 1.84896E+07 3.08160E+05  5136.0      214.00     0.58590    
 UBDSV1 SAVING           STO-SS ON UNIT   1016 AT TIME STEP      2, STRESS PERIOD      9
 UBDSV1 SAVING           STO-SY ON UNIT   1016 AT TIME STEP      2, STRESS PERIOD      9
 UBDSV1 SAVING     FLOW-JA-FACE ON UNIT   1016 AT TIME STEP      2, STRESS PERIOD      9
 UBDSV06 SAVING              RCH IN MODEL TEST_TRANS       PACKAGE TEST_TRANS      CONNECTED TO MODEL TEST_TRANS       PACKAGE RCHA             ON UNIT   1016 AT TIME STEP      2, STRESS PERIOD      9
 UBDSV06 SAVING              CHD IN MODEL TEST_TRANS       PACKAGE TEST_TRANS      CONNECTED TO MODEL TEST_TRANS       PACKAGE CHD              ON UNIT   1016 AT TIME STEP      2, STRESS PERIOD      9

 HEAD WILL BE SAVED ON UNIT 1017 AT END OF TIME STEP    2, STRESS PERIOD    9
 UBDSV1 SAVING           STO-SS ON UNIT   1016 AT TIME STEP      3, STRESS PERIOD      9
 UBDSV1 SAVING           STO-SY ON UNIT   1016 AT TIME STEP      3, STRESS PERIOD      9
 UBDSV1 SAVING     FLOW-JA-FACE ON UNIT   1016 AT TIME STEP      3, STRESS PERIOD      9
 UBDSV06 SAVING              RCH IN MODEL TEST_TRANS       PACKAGE TEST_TRANS      CONNECTED TO MODEL TEST_TRANS       PACKAGE RCHA             ON UNIT   1016 AT TIME STEP      3, STRESS PERIOD      9
 UBDSV06 SAVING              CHD IN MODEL TEST_TRANS       PACKAGE TEST_TRANS      CONNECTED TO MODEL TEST_TRANS       PACKAGE CHD              ON UNIT   1016 AT TIME STEP      3, STRESS PERIOD      9

 HEAD WILL BE SAVED ON UNIT 1017 AT END OF TIME STEP    3, STRESS PERIOD    9
 UBDSV1 SAVING           STO-SS ON UNIT   1016 AT TIME STEP      4, STRESS PERIOD      9
 UBDSV1 SAVING           STO-SY ON UNIT   1016 AT TIME STEP      4, STRESS PERIOD      9
 UBDSV1 SAVING     FLOW-JA-FACE ON UNIT   1016 AT TIME STEP      4, STRESS PERIOD      9
 UBDSV06 SAVING              RCH IN MODEL TEST_TRANS       PACKAGE TEST_TRANS      CONNECTED TO MODEL TEST_TRANS       PACKAGE RCHA             ON UNIT   1016 AT TIME STEP      4, STRESS PERIOD      9
 UBDSV06 SAVING              CHD IN MODEL TEST_TRANS       PACKAGE TEST_TRANS      CONNECTED TO MODEL TEST_TRANS       PACKAGE CHD              ON UNIT   1016 AT TIME STEP      4, STRESS PERIOD      9

 HEAD WILL BE SAVED ON UNIT 1017 AT END OF TIME STEP    4, STRESS PERIOD    9
 UBDSV1 SAVING           STO-SS ON UNIT   1016 AT TIME STEP      5, STRESS PERIOD      9
 UBDSV1 SAVING           STO-SY ON UNIT   1016 AT TIME STEP      5, STRESS PERIOD      9
 UBDSV1 SAVING     FLOW-JA-FACE ON UNIT   1016 AT TIME STEP      5, STRESS PERIOD      9
 UBDSV06 SAVING              RCH IN MODEL TEST_TRANS       PACKAGE TEST_TRANS      CONNECTED TO MODEL TEST_TRANS       PACKAGE RCHA             ON UNIT   1016 AT TIME STEP      5, STRESS PERIOD      9
 UBDSV06 SAVING              CHD IN MODEL TEST_TRANS       PACKAGE TEST_TRANS      CONNECTED TO MODEL TEST_TRANS       PACKAGE CHD              ON UNIT   1016 AT TIME STEP      5, STRESS PERIOD      9

 HEAD WILL BE SAVED ON UNIT 1017 AT END OF TIME STEP    5, STRESS PERIOD    9
 UBDSV1 SAVING           STO-SS ON UNIT   1016 AT TIME STEP      6, STRESS PERIOD      9
 UBDSV1 SAVING           STO-SY ON UNIT   1016 AT TIME STEP      6, STRESS PERIOD      9
 UBDSV1 SAVING     FLOW-JA-FACE ON UNIT   1016 AT TIME STEP      6, STRESS PERIOD      9
 UBDSV06 SAVING              RCH IN MODEL TEST_TRANS       PACKAGE TEST_TRANS      CONNECTED TO MODEL TEST_TRANS       PACKAGE RCHA             ON UNIT   1016 AT TIME STEP      6, STRESS PERIOD      9
 UBDSV06 SAVING              CHD IN MODEL TEST_TRANS       PACKAGE TEST_TRANS      CONNECTED TO MODEL TEST_TRANS       PACKAGE CHD              ON UNIT   1016 AT TIME STEP      6, STRESS PERIOD      9

 HEAD WILL BE SAVED ON UNIT 1017 AT END OF TIME STEP    6, STRESS PERIOD    9
 UBDSV1 SAVING           STO-SS ON UNIT   1016 AT TIME STEP      7, STRESS PERIOD      9
 UBDSV1 SAVING           STO-SY ON UNIT   1016 AT TIME STEP      7, STRESS PERIOD      9
 UBDSV1 SAVING     FLOW-JA-FACE ON UNIT   1016 AT TIME STEP      7, STRESS PERIOD      9
 UBDSV06 SAVING              RCH IN MODEL TEST_TRANS       PACKAGE TEST_TRANS      CONNECTED TO MODEL TEST_TRANS       PACKAGE RCHA             ON UNIT   1016 AT TIME STEP      7, STRESS PERIOD      9
 UBDSV06 SAVING              CHD IN MODEL TEST_TRANS       PACKAGE TEST_TRANS      CONNECTED TO MODEL TEST_TRANS       PACKAGE CHD              ON UNIT   1016 AT TIME STEP      7, STRESS PERIOD      9

 HEAD WILL BE SAVED ON UNIT 1017 AT END OF TIME STEP    7, STRESS PERIOD    9
 UBDSV1 SAVING           STO-SS ON UNIT   1016 AT TIME STEP      8, STRESS PERIOD      9
 UBDSV1 SAVING           STO-SY ON UNIT   1016 AT TIME STEP      8, STRESS PERIOD      9
 UBDSV1 SAVING     FLOW-JA-FACE ON UNIT   1016 AT TIME STEP      8, STRESS PERIOD      9
 UBDSV06 SAVING              RCH IN MODEL TEST_TRANS       PACKAGE TEST_TRANS      CONNECTED TO MODEL TEST_TRANS       PACKAGE RCHA             ON UNIT   1016 AT TIME STEP      8, STRESS PERIOD      9
 UBDSV06 SAVING              CHD IN MODEL TEST_TRANS       PACKAGE TEST_TRANS      CONNECTED TO MODEL TEST_TRANS       PACKAGE CHD              ON UNIT   1016 AT TIME STEP      8, STRESS PERIOD      9

 HEAD WILL BE SAVED ON UNIT 1017 AT END OF TIME STEP    8, STRESS PERIOD    9
 UBDSV1 SAVING           STO-SS ON UNIT   1016 AT TIME STEP      9, STRESS PERIOD      9
 UBDSV1 SAVING           STO-SY ON UNIT   1016 AT TIME STEP      9, STRESS PERIOD      9
 UBDSV1 SAVING     FLOW-JA-FACE ON UNIT   1016 AT TIME STEP      9, STRESS PERIOD      9
 UBDSV06 SAVING              RCH IN MODEL TEST_TRANS       PACKAGE TEST_TRANS      CONNECTED TO MODEL TEST_TRANS       PACKAGE RCHA             ON UNIT   1016 AT TIME STEP      9, STRESS PERIOD      9
 UBDSV06 SAVING              CHD IN MODEL TEST_TRANS       PACKAGE TEST_TRANS      CONNECTED TO MODEL TEST_TRANS       PACKAGE CHD              ON UNIT   1016 AT TIME STEP      9, STRESS PERIOD      9

 HEAD WILL BE SAVED ON UNIT 1017 AT END OF TIME STEP    9, STRESS PERIOD    9
 UBDSV1 SAVING           STO-SS ON UNIT   1016 AT TIME STEP     10, STRESS PERIOD      9
 UBDSV1 SAVING           STO-SY ON UNIT   1016 AT TIME STEP     10, STRESS PERIOD      9
 UBDSV1 SAVING     FLOW-JA-FACE ON UNIT   1016 AT TIME STEP     10, STRESS PERIOD      9
 UBDSV06 SAVING              RCH IN MODEL TEST_TRANS       PACKAGE TEST_TRANS      CONNECTED TO MODEL TEST_TRANS       PACKAGE RCHA             ON UNIT   1016 AT TIME STEP     10, STRESS PERIOD      9
 UBDSV06 SAVING              CHD IN MODEL TEST_TRANS       PACKAGE TEST_TRANS      CONNECTED TO MODEL TEST_TRANS       PACKAGE CHD              ON UNIT   1016 AT TIME STEP     10, STRESS PERIOD      9
1
  HEAD IN LAYER   1 AT END OF TIME STEP  10 IN STRESS PERIOD    9
  ---------------------------------------------------------------------------

            1           2           3           4           5           6           7           8           9          10
           11          12          13          14          15          16          17          18          19          20
           21          22          23          24          25          26          27          28          29          30
 ........................................................................................................................
   1    27.79       27.79       27.78       27.77       27.75       27.73       27.70       27.67       27.63       27.59    
        27.55       27.49       27.44       27.37       27.31       27.23       27.15       27.06       26.97       26.87    
        26.75       26.63       26.50       26.36       26.21       26.04       25.85       25.65       25.42       25.15    
   2    27.79       27.79       27.78       27.77       27.75       27.73       27.70       27.67       27.63       27.59    
        27.55       27.49       27.44       27.37       27.31       27.23       27.15       27.06       26.97       26.87    
        26.75       26.63       26.50       26.36       26.21       26.04       25.85       25.65       25.42       25.15    
   3    27.79       27.79       27.78       27.77       27.75       27.73       27.70       27.67       27.63       27.59    
        27.55       27.49       27.44       27.37       27.31       27.23       27.15       27.06       26.97       26.87    
        26.75       26.63       26.50       26.36       26.21       26.04       25.85       25.65       25.42       25.15    
   4    27.79       27.79       27.78       27.77       27.75       27.73       27.70       27.67       27.63       27.59    
        27.55       27.49       27.44       27.37       27.31       27.23       27.15       27.06       26.97       26.87    
        26.75       26.63       26.50       26.36       26.21       26.04       25.85       25.65       25.42       25.15    
   5    27.79       27.79       27.78       27.77       27.75       27.73       27.70       27.67       27.63       27.59    
        27.55       27.49       27.44       27.37       27.31       27.23       27.15       27.06       26.97       26.87    
        26.75       26.63       26.50       26.36       26.21       26.04       25.85       25.65       25.42       25.15    
   6    27.79       27.79       27.78       27.77       27.75       27.73       27.70       27.67       27.63       27.59    
        27.55       27.49       27.44       27.37       27.31       27.23       27.15       27.06       26.97       26.87    
        26.75       26.63       26.50       26.36       26.21       26.04       25.85       25.65       25.42       25.15    
   7    27.79       27.79       27.78       27.77       27.75       27.73       27.70       27.67       27.63       27.59    
        27.55       27.49       27.44       27.37       27.31       27.23       27.15       27.06       26.97       26.87    
        26.75       26.63       26.50       26.36       26.21       26.04       25.85       25.65       25.42       25.15    
   8    27.79       27.79       27.78       27.77       27.75       27.73       27.70       27.67       27.63       27.59    
        27.55       27.49       27.44       27.37       27.31       27.23       27.15       27.06       26.97       26.87    
        26.75       26.63       26.50       26.36       26.21       26.04       25.85       25.65       25.42       25.15    
   9    27.79       27.79       27.78       27.77       27.75       27.73       27.70       27.67       27.63       27.59    
        27.55       27.49       27.44       27.37       27.31       27.23       27.15       27.06       26.97       26.87    
        26.75       26.63       26.50       26.36       26.21       26.04       25.85       25.65       25.42       25.15    
  10    27.79       27.79       27.78       27.77       27.75       27.73       27.70       27.67       27.63       27.59    
        27.55       27.49       27.44       27.37       27.31       27.23       27.15       27.06       26.97       26.87    
        26.75       26.63       26.50       26.36       26.21       26.04       25.85       25.65       25.42       25.15    
  11    27.79       27.79       27.78       27.77       27.75       27.73       27.70       27.67       27.63       27.59    
        27.55       27.49       27.44       27.37       27.31       27.23       27.15       27.06       26.97       26.87    
        26.75       26.63       26.50       26.36       26.21       26.04       25.85       25.65       25.42       25.15    
  12    27.79       27.79       27.78       27.77       27.75       27.73       27.70       27.67       27.63       27.59    
        27.55       27.49       27.44       27.37       27.31       27.23       27.15       27.06       26.97       26.87    
        26.75       26.63       26.50       26.36       26.21       26.04       25.85       25.65       25.42       25.15    
  13    27.79       27.79       27.78       27.77       27.75       27.73       27.70       27.67       27.63       27.59    
        27.55       27.49       27.44       27.37       27.31       27.23       27.15       27.06       26.97       26.87    
        26.75       26.63       26.50       26.36       26.21       26.04       25.85       25.65       25.42       25.15    
  14    27.79       27.79       27.78       27.77       27.75       27.73       27.70       27.67       27.63       27.59    
        27.55       27.49       27.44       27.37       27.31       27.23       27.15       27.06       26.97       26.87    
        26.75       26.63       26.50       26.36       26.21       26.04       25.85       25.65       25.42       25.15    
  15    27.79       27.79       27.78       27.77       27.75       27.73       27.70       27.67       27.63       27.59    
        27.55       27.49       27.44       27.37       27.31       27.23       27.15       27.06       26.97       26.87    
        26.75       26.63       26.50       26.36       26.21       26.04       25.85       25.65       25.42       25.15    
  16    27.79       27.79       27.78       27.77       27.75       27.73       27.70       27.67       27.63       27.59    
        27.55       27.49       27.44       27.37       27.31       27.23       27.15       27.06       26.97       26.87    
        26.75       26.63       26.50       26.36       26.21       26.04       25.85       25.65       25.42       25.15    
  17    27.79       27.79       27.78       27.77       27.75       27.73       27.70       27.67       27.63       27.59    
        27.55       27.49       27.44       27.37       27.31       27.23       27.15       27.06       26.97       26.87    
        26.75       26.63       26.50       26.36       26.21       26.04       25.85       25.65       25.42       25.15    
  18    27.79       27.79       27.78       27.77       27.75       27.73       27.70       27.67       27.63       27.59    
        27.55       27.49       27.44       27.37       27.31       27.23       27.15       27.06       26.97       26.87    
        26.75       26.63       26.50       26.36       26.21       26.04       25.85       25.65       25.42       25.15    
  19    27.79       27.79       27.78       27.77       27.75       27.73       27.70       27.67       27.63       27.59    
        27.55       27.49       27.44       27.37       27.31       27.23       27.15       27.06       26.97       26.87    
        26.75       26.63       26.50       26.36       26.21       26.04       25.85       25.65       25.42       25.15    
  20    27.79       27.79       27.78       27.77       27.75       27.73       27.70       27.67       27.63       27.59    
        27.55       27.49       27.44       27.37       27.31       27.23       27.15       27.06       26.97       26.87    
        26.75       26.63       26.50       26.36       26.21       26.04       25.85       25.65       25.42       25.15    
  21    27.79       27.79       27.78       27.77       27.75       27.73       27.70       27.67       27.63       27.59    
        27.55       27.49       27.44       27.37       27.31       27.23       27.15       27.06       26.97       26.87    
        26.75       26.63       26.50       26.36       26.21       26.04       25.85       25.65       25.42       25.15    
  22    27.79       27.79       27.78       27.77       27.75       27.73       27.70       27.67       27.63       27.59    
        27.55       27.49       27.44       27.37       27.31       27.23       27.15       27.06       26.97       26.87    
        26.75       26.63       26.50       26.36       26.21       26.04       25.85       25.65       25.42       25.15    
  23    27.79       27.79       27.78       27.77       27.75       27.73       27.70       27.67       27.63       27.59    
        27.55       27.49       27.44       27.37       27.31       27.23       27.15       27.06       26.97       26.87    
        26.75       26.63       26.50       26.36       26.21       26.04       25.85       25.65       25.42       25.15    
  24    27.79       27.79       27.78       27.77       27.75       27.73       27.70       27.67       27.63       27.59    
        27.55       27.49       27.44       27.37       27.31       27.23       27.15       27.06       26.97       26.87    
        26.75       26.63       26.50       26.36       26.21       26.04       25.85       25.65       25.42       25.15    
  25    27.79       27.79       27.78       27.77       27.75       27.73       27.70       27.67       27.63       27.59    
        27.55       27.49       27.44       27.37       27.31       27.23       27.15       27.06       26.97       26.87    
        26.75       26.63       26.50       26.36       26.21       26.04       25.85       25.65       25.42       25.15    
  26    27.79       27.79       27.78       27.77       27.75       27.73       27.70       27.67       27.63       27.59    
        27.55       27.49       27.44       27.37       27.31       27.23       27.15       27.06       26.97       26.87    
        26.75       26.63       26.50       26.36       26.21       26.04       25.85       25.65       25.42       25.15    
  27    27.79       27.79       27.78       27.77       27.75       27.73       27.70       27.67       27.63       27.59    
        27.55       27.49       27.44       27.37       27.31       27.23       27.15       27.06       26.97       26.87    
        26.75       26.63       26.50       26.36       26.21       26.04       25.85       25.65       25.42       25.15    
  28    27.79       27.79       27.78       27.77       27.75       27.73       27.70       27.67       27.63       27.59    
        27.55       27.49       27.44       27.37       27.31       27.23       27.15       27.06       26.97       26.87    
        26.75       26.63       26.50       26.36       26.21       26.04       25.85       25.65       25.42       25.15    
  29    27.79       27.79       27.78       27.77       27.75       27.73       27.70       27.67       27.63       27.59    
        27.55       27.49       27.44       27.37       27.31       27.23       27.15       27.06       26.97       26.87    
        26.75       26.63       26.50       26.36       26.21       26.04       25.85       25.65       25.42       25.15    
  30    27.79       27.79       27.78       27.77       27.75       27.73       27.70       27.67       27.63       27.59    
        27.55       27.49       27.44       27.37       27.31       27.23       27.15       27.06       26.97       26.87    
        26.75       26.63       26.50       26.36       26.21       26.04       25.85       25.65       25.42       25.15    

 HEAD WILL BE SAVED ON UNIT 1017 AT END OF TIME STEP   10, STRESS PERIOD    9


  VOLUME BUDGET FOR ENTIRE MODEL AT END OF TIME STEP   10, STRESS PERIOD   9
  ---------------------------------------------------------------------------------------------------

     CUMULATIVE VOLUME      L**3       RATES FOR THIS TIME STEP      L**3/T          PACKAGE NAME    
     ------------------                 ------------------------                     ----------------

           IN:                                      IN:
           ---                                      ---
              STO-SS =          21.6845                STO-SS =       2.2302E-02     STORAGE         
              STO-SY =       13482.9352                STO-SY =          14.1862     STORAGE         
                 RCH =       33489.0597                   RCH =         143.0141     RCHA            
                 CHD =           0.0000                   CHD =           0.0000     CHD             

            TOTAL IN =       46993.6794              TOTAL IN =         157.2226

          OUT:                                     OUT:
          ----                                     ----
              STO-SS =           3.4062                STO-SS =           0.0000     STORAGE         
              STO-SY =        2177.4326                STO-SY =           0.0000     STORAGE         
                 RCH =           0.0000                   RCH =           0.0000     RCHA            
                 CHD =       44811.5578                   CHD =         157.2036     CHD             

           TOTAL OUT =       46992.3965             TOTAL OUT =         157.2036

            IN - OUT =           1.2829              IN - OUT =       1.9035E-02

 PERCENT DISCREPANCY =           0.00     PERCENT DISCREPANCY =           0.01




         TIME SUMMARY AT END OF TIME STEP   10 IN STRESS PERIOD    9
                    SECONDS     MINUTES      HOURS       DAYS        YEARS
                    -----------------------------------------------------------
   TIME STEP LENGTH 2.59200E+05  4320.0      72.000      3.0000     8.21355E-03
 STRESS PERIOD TIME 2.59200E+06  43200.      720.00      30.000     8.21355E-02
         TOTAL TIME 2.08224E+07 3.47040E+05  5784.0      241.00     0.65982    

 OUTPUT CONTROL FOR STRESS PERIOD 10 IS REPEATED USING SETTINGS FROM A PREVIOUS STRESS PERIOD.


 STRESS PERIOD 10 IS TRANSIENT


                 RECHARGE =  0.2191780E-02
 UBDSV1 SAVING           STO-SS ON UNIT   1016 AT TIME STEP      1, STRESS PERIOD     10
 UBDSV1 SAVING           STO-SY ON UNIT   1016 AT TIME STEP      1, STRESS PERIOD     10
 UBDSV1 SAVING     FLOW-JA-FACE ON UNIT   1016 AT TIME STEP      1, STRESS PERIOD     10
 UBDSV06 SAVING              RCH IN MODEL TEST_TRANS       PACKAGE TEST_TRANS      CONNECTED TO MODEL TEST_TRANS       PACKAGE RCHA             ON UNIT   1016 AT TIME STEP      1, STRESS PERIOD     10
 UBDSV06 SAVING              CHD IN MODEL TEST_TRANS       PACKAGE TEST_TRANS      CONNECTED TO MODEL TEST_TRANS       PACKAGE CHD              ON UNIT   1016 AT TIME STEP      1, STRESS PERIOD     10
1
  HEAD IN LAYER   1 AT END OF TIME STEP   1 IN STRESS PERIOD   10
  ---------------------------------------------------------------------------

            1           2           3           4           5           6           7           8           9          10
           11          12          13          14          15          16          17          18          19          20
           21          22          23          24          25          26          27          28          29          30
 ........................................................................................................................
   1    27.80       27.80       27.79       27.77       27.76       27.73       27.71       27.67       27.64       27.60    
        27.55       27.50       27.44       27.38       27.31       27.24       27.16       27.07       26.97       26.87    
        26.76       26.64       26.51       26.37       26.21       26.04       25.85       25.63       25.37       25.06    
   2    27.80       27.80       27.79       27.77       27.76       27.73       27.71       27.67       27.64       27.60    
        27.55       27.50       27.44       27.38       27.31       27.24       27.16       27.07       26.97       26.87    
        26.76       26.64       26.51       26.37       26.21       26.04       25.85       25.63       25.37       25.06    
   3    27.80       27.80       27.79       27.77       27.76       27.73       27.71       27.67       27.64       27.60    
        27.55       27.50       27.44       27.38       27.31       27.24       27.16       27.07       26.97       26.87    
        26.76       26.64       26.51       26.37       26.21       26.04       25.85       25.63       25.37       25.06    
   4    27.80       27.80       27.79       27.77       27.76       27.73       27.71       27.67       27.64       27.60    
        27.55       27.50       27.44       27.38       27.31       27.24       27.16       27.07       26.97       26.87    
        26.76       26.64       26.51       26.37       26.21       26.04       25.85       25.63       25.37       25.06    
   5    27.80       27.80       27.79       27.77       27.76       27.73       27.71       27.67       27.64       27.60    
        27.55       27.50       27.44       27.38       27.31       27.24       27.16       27.07       26.97       26.87    
        26.76       26.64       26.51       26.37       26.21       26.04       25.85       25.63       25.37       25.06    
   6    27.80       27.80       27.79       27.77       27.76       27.73       27.71       27.67       27.64       27.60    
        27.55       27.50       27.44       27.38       27.31       27.24       27.16       27.07       26.97       26.87    
        26.76       26.64       26.51       26.37       26.21       26.04       25.85       25.63       25.37       25.06    
   7    27.80       27.80       27.79       27.77       27.76       27.73       27.71       27.67       27.64       27.60    
        27.55       27.50       27.44       27.38       27.31       27.24       27.16       27.07       26.97       26.87    
        26.76       26.64       26.51       26.37       26.21       26.04       25.85       25.63       25.37       25.06    
   8    27.80       27.80       27.79       27.77       27.76       27.73       27.71       27.67       27.64       27.60    
        27.55       27.50       27.44       27.38       27.31       27.24       27.16       27.07       26.97       26.87    
        26.76       26.64       26.51       26.37       26.21       26.04       25.85       25.63       25.37       25.06    
   9    27.80       27.80       27.79       27.77       27.76       27.73       27.71       27.67       27.64       27.60    
        27.55       27.50       27.44       27.38       27.31       27.24       27.16       27.07       26.97       26.87    
        26.76       26.64       26.51       26.37       26.21       26.04       25.85       25.63       25.37       25.06    
  10    27.80       27.80       27.79       27.77       27.76       27.73       27.71       27.67       27.64       27.60    
        27.55       27.50       27.44       27.38       27.31       27.24       27.16       27.07       26.97       26.87    
        26.76       26.64       26.51       26.37       26.21       26.04       25.85       25.63       25.37       25.06    
  11    27.80       27.80       27.79       27.77       27.76       27.73       27.71       27.67       27.64       27.60    
        27.55       27.50       27.44       27.38       27.31       27.24       27.16       27.07       26.97       26.87    
        26.76       26.64       26.51       26.37       26.21       26.04       25.85       25.63       25.37       25.06    
  12    27.80       27.80       27.79       27.77       27.76       27.73       27.71       27.67       27.64       27.60    
        27.55       27.50       27.44       27.38       27.31       27.24       27.16       27.07       26.97       26.87    
        26.76       26.64       26.51       26.37       26.21       26.04       25.85       25.63       25.37       25.06    
  13    27.80       27.80       27.79       27.77       27.76       27.73       27.71       27.67       27.64       27.60    
        27.55       27.50       27.44       27.38       27.31       27.24       27.16       27.07       26.97       26.87    
        26.76       26.64       26.51       26.37       26.21       26.04       25.85       25.63       25.37       25.06    
  14    27.80       27.80       27.79       27.77       27.76       27.73       27.71       27.67       27.64       27.60    
        27.55       27.50       27.44       27.38       27.31       27.24       27.16       27.07       26.97       26.87    
        26.76       26.64       26.51       26.37       26.21       26.04       25.85       25.63       25.37       25.06    
  15    27.80       27.80       27.79       27.77       27.76       27.73       27.71       27.67       27.64       27.60    
        27.55       27.50       27.44       27.38       27.31       27.24       27.16       27.07       26.97       26.87    
        26.76       26.64       26.51       26.37       26.21       26.04       25.85       25.63       25.37       25.06    
  16    27.80       27.80       27.79       27.77       27.76       27.73       27.71       27.67       27.64       27.60    
        27.55       27.50       27.44       27.38       27.31       27.24       27.16       27.07       26.97       26.87    
        26.76       26.64       26.51       26.37       26.21       26.04       25.85       25.63       25.37       25.06    
  17    27.80       27.80       27.79       27.77       27.76       27.73       27.71       27.67       27.64       27.60    
        27.55       27.50       27.44       27.38       27.31       27.24       27.16       27.07       26.97       26.87    
        26.76       26.64       26.51       26.37       26.21       26.04       25.85       25.63       25.37       25.06    
  18    27.80       27.80       27.79       27.77       27.76       27.73       27.71       27.67       27.64       27.60    
        27.55       27.50       27.44       27.38       27.31       27.24       27.16       27.07       26.97       26.87    
        26.76       26.64       26.51       26.37       26.21       26.04       25.85       25.63       25.37       25.06    
  19    27.80       27.80       27.79       27.77       27.76       27.73       27.71       27.67       27.64       27.60    
        27.55       27.50       27.44       27.38       27.31       27.24       27.16       27.07       26.97       26.87    
        26.76       26.64       26.51       26.37       26.21       26.04       25.85       25.63       25.37       25.06    
  20    27.80       27.80       27.79       27.77       27.76       27.73       27.71       27.67       27.64       27.60    
        27.55       27.50       27.44       27.38       27.31       27.24       27.16       27.07       26.97       26.87    
        26.76       26.64       26.51       26.37       26.21       26.04       25.85       25.63       25.37       25.06    
  21    27.80       27.80       27.79       27.77       27.76       27.73       27.71       27.67       27.64       27.60    
        27.55       27.50       27.44       27.38       27.31       27.24       27.16       27.07       26.97       26.87    
        26.76       26.64       26.51       26.37       26.21       26.04       25.85       25.63       25.37       25.06    
  22    27.80       27.80       27.79       27.77       27.76       27.73       27.71       27.67       27.64       27.60    
        27.55       27.50       27.44       27.38       27.31       27.24       27.16       27.07       26.97       26.87    
        26.76       26.64       26.51       26.37       26.21       26.04       25.85       25.63       25.37       25.06    
  23    27.80       27.80       27.79       27.77       27.76       27.73       27.71       27.67       27.64       27.60    
        27.55       27.50       27.44       27.38       27.31       27.24       27.16       27.07       26.97       26.87    
        26.76       26.64       26.51       26.37       26.21       26.04       25.85       25.63       25.37       25.06    
  24    27.80       27.80       27.79       27.77       27.76       27.73       27.71       27.67       27.64       27.60    
        27.55       27.50       27.44       27.38       27.31       27.24       27.16       27.07       26.97       26.87    
        26.76       26.64       26.51       26.37       26.21       26.04       25.85       25.63       25.37       25.06    
  25    27.80       27.80       27.79       27.77       27.76       27.73       27.71       27.67       27.64       27.60    
        27.55       27.50       27.44       27.38       27.31       27.24       27.16       27.07       26.97       26.87    
        26.76       26.64       26.51       26.37       26.21       26.04       25.85       25.63       25.37       25.06    
  26    27.80       27.80       27.79       27.77       27.76       27.73       27.71       27.67       27.64       27.60    
        27.55       27.50       27.44       27.38       27.31       27.24       27.16       27.07       26.97       26.87    
        26.76       26.64       26.51       26.37       26.21       26.04       25.85       25.63       25.37       25.06    
  27    27.80       27.80       27.79       27.77       27.76       27.73       27.71       27.67       27.64       27.60    
        27.55       27.50       27.44       27.38       27.31       27.24       27.16       27.07       26.97       26.87    
        26.76       26.64       26.51       26.37       26.21       26.04       25.85       25.63       25.37       25.06    
  28    27.80       27.80       27.79       27.77       27.76       27.73       27.71       27.67       27.64       27.60    
        27.55       27.50       27.44       27.38       27.31       27.24       27.16       27.07       26.97       26.87    
        26.76       26.64       26.51       26.37       26.21       26.04       25.85       25.63       25.37       25.06    
  29    27.80       27.80       27.79       27.77       27.76       27.73       27.71       27.67       27.64       27.60    
        27.55       27.50       27.44       27.38       27.31       27.24       27.16       27.07       26.97       26.87    
        26.76       26.64       26.51       26.37       26.21       26.04       25.85       25.63       25.37       25.06    
  30    27.80       27.80       27.79       27.77       27.76       27.73       27.71       27.67       27.64       27.60    
        27.55       27.50       27.44       27.38       27.31       27.24       27.16       27.07       26.97       26.87    
        26.76       26.64       26.51       26.37       26.21       26.04       25.85       25.63       25.37       25.06    

 HEAD WILL BE SAVED ON UNIT 1017 AT END OF TIME STEP    1, STRESS PERIOD   10



         TIME SUMMARY AT END OF TIME STEP    1 IN STRESS PERIOD   10
                    SECONDS     MINUTES      HOURS       DAYS        YEARS
                    -----------------------------------------------------------
   TIME STEP LENGTH 2.59200E+05  4320.0      72.000      3.0000     8.21355E-03
 STRESS PERIOD TIME 2.59200E+05  4320.0      72.000      3.0000     8.21355E-03
         TOTAL TIME 2.10816E+07 3.51360E+05  5856.0      244.00     0.66804    
 UBDSV1 SAVING           STO-SS ON UNIT   1016 AT TIME STEP      2, STRESS PERIOD     10
 UBDSV1 SAVING           STO-SY ON UNIT   1016 AT TIME STEP      2, STRESS PERIOD     10
 UBDSV1 SAVING     FLOW-JA-FACE ON UNIT   1016 AT TIME STEP      2, STRESS PERIOD     10
 UBDSV06 SAVING              RCH IN MODEL TEST_TRANS       PACKAGE TEST_TRANS      CONNECTED TO MODEL TEST_TRANS       PACKAGE RCHA             ON UNIT   1016 AT TIME STEP      2, STRESS PERIOD     10
 UBDSV06 SAVING              CHD IN MODEL TEST_TRANS       PACKAGE TEST_TRANS      CONNECTED TO MODEL TEST_TRANS       PACKAGE CHD              ON UNIT   1016 AT TIME STEP      2, STRESS PERIOD     10

 HEAD WILL BE SAVED ON UNIT 1017 AT END OF TIME STEP    2, STRESS PERIOD   10
 UBDSV1 SAVING           STO-SS ON UNIT   1016 AT TIME STEP      3, STRESS PERIOD     10
 UBDSV1 SAVING           STO-SY ON UNIT   1016 AT TIME STEP      3, STRESS PERIOD     10
 UBDSV1 SAVING     FLOW-JA-FACE ON UNIT   1016 AT TIME STEP      3, STRESS PERIOD     10
 UBDSV06 SAVING              RCH IN MODEL TEST_TRANS       PACKAGE TEST_TRANS      CONNECTED TO MODEL TEST_TRANS       PACKAGE RCHA             ON UNIT   1016 AT TIME STEP      3, STRESS PERIOD     10
 UBDSV06 SAVING              CHD IN MODEL TEST_TRANS       PACKAGE TEST_TRANS      CONNECTED TO MODEL TEST_TRANS       PACKAGE CHD              ON UNIT   1016 AT TIME STEP      3, STRESS PERIOD     10

 HEAD WILL BE SAVED ON UNIT 1017 AT END OF TIME STEP    3, STRESS PERIOD   10
 UBDSV1 SAVING           STO-SS ON UNIT   1016 AT TIME STEP      4, STRESS PERIOD     10
 UBDSV1 SAVING           STO-SY ON UNIT   1016 AT TIME STEP      4, STRESS PERIOD     10
 UBDSV1 SAVING     FLOW-JA-FACE ON UNIT   1016 AT TIME STEP      4, STRESS PERIOD     10
 UBDSV06 SAVING              RCH IN MODEL TEST_TRANS       PACKAGE TEST_TRANS      CONNECTED TO MODEL TEST_TRANS       PACKAGE RCHA             ON UNIT   1016 AT TIME STEP      4, STRESS PERIOD     10
 UBDSV06 SAVING              CHD IN MODEL TEST_TRANS       PACKAGE TEST_TRANS      CONNECTED TO MODEL TEST_TRANS       PACKAGE CHD              ON UNIT   1016 AT TIME STEP      4, STRESS PERIOD     10

 HEAD WILL BE SAVED ON UNIT 1017 AT END OF TIME STEP    4, STRESS PERIOD   10
 UBDSV1 SAVING           STO-SS ON UNIT   1016 AT TIME STEP      5, STRESS PERIOD     10
 UBDSV1 SAVING           STO-SY ON UNIT   1016 AT TIME STEP      5, STRESS PERIOD     10
 UBDSV1 SAVING     FLOW-JA-FACE ON UNIT   1016 AT TIME STEP      5, STRESS PERIOD     10
 UBDSV06 SAVING              RCH IN MODEL TEST_TRANS       PACKAGE TEST_TRANS      CONNECTED TO MODEL TEST_TRANS       PACKAGE RCHA             ON UNIT   1016 AT TIME STEP      5, STRESS PERIOD     10
 UBDSV06 SAVING              CHD IN MODEL TEST_TRANS       PACKAGE TEST_TRANS      CONNECTED TO MODEL TEST_TRANS       PACKAGE CHD              ON UNIT   1016 AT TIME STEP      5, STRESS PERIOD     10

 HEAD WILL BE SAVED ON UNIT 1017 AT END OF TIME STEP    5, STRESS PERIOD   10
 UBDSV1 SAVING           STO-SS ON UNIT   1016 AT TIME STEP      6, STRESS PERIOD     10
 UBDSV1 SAVING           STO-SY ON UNIT   1016 AT TIME STEP      6, STRESS PERIOD     10
 UBDSV1 SAVING     FLOW-JA-FACE ON UNIT   1016 AT TIME STEP      6, STRESS PERIOD     10
 UBDSV06 SAVING              RCH IN MODEL TEST_TRANS       PACKAGE TEST_TRANS      CONNECTED TO MODEL TEST_TRANS       PACKAGE RCHA             ON UNIT   1016 AT TIME STEP      6, STRESS PERIOD     10
 UBDSV06 SAVING              CHD IN MODEL TEST_TRANS       PACKAGE TEST_TRANS      CONNECTED TO MODEL TEST_TRANS       PACKAGE CHD              ON UNIT   1016 AT TIME STEP      6, STRESS PERIOD     10

 HEAD WILL BE SAVED ON UNIT 1017 AT END OF TIME STEP    6, STRESS PERIOD   10
 UBDSV1 SAVING           STO-SS ON UNIT   1016 AT TIME STEP      7, STRESS PERIOD     10
 UBDSV1 SAVING           STO-SY ON UNIT   1016 AT TIME STEP      7, STRESS PERIOD     10
 UBDSV1 SAVING     FLOW-JA-FACE ON UNIT   1016 AT TIME STEP      7, STRESS PERIOD     10
 UBDSV06 SAVING              RCH IN MODEL TEST_TRANS       PACKAGE TEST_TRANS      CONNECTED TO MODEL TEST_TRANS       PACKAGE RCHA             ON UNIT   1016 AT TIME STEP      7, STRESS PERIOD     10
 UBDSV06 SAVING              CHD IN MODEL TEST_TRANS       PACKAGE TEST_TRANS      CONNECTED TO MODEL TEST_TRANS       PACKAGE CHD              ON UNIT   1016 AT TIME STEP      7, STRESS PERIOD     10

 HEAD WILL BE SAVED ON UNIT 1017 AT END OF TIME STEP    7, STRESS PERIOD   10
 UBDSV1 SAVING           STO-SS ON UNIT   1016 AT TIME STEP      8, STRESS PERIOD     10
 UBDSV1 SAVING           STO-SY ON UNIT   1016 AT TIME STEP      8, STRESS PERIOD     10
 UBDSV1 SAVING     FLOW-JA-FACE ON UNIT   1016 AT TIME STEP      8, STRESS PERIOD     10
 UBDSV06 SAVING              RCH IN MODEL TEST_TRANS       PACKAGE TEST_TRANS      CONNECTED TO MODEL TEST_TRANS       PACKAGE RCHA             ON UNIT   1016 AT TIME STEP      8, STRESS PERIOD     10
 UBDSV06 SAVING              CHD IN MODEL TEST_TRANS       PACKAGE TEST_TRANS      CONNECTED TO MODEL TEST_TRANS       PACKAGE CHD              ON UNIT   1016 AT TIME STEP      8, STRESS PERIOD     10

 HEAD WILL BE SAVED ON UNIT 1017 AT END OF TIME STEP    8, STRESS PERIOD   10
 UBDSV1 SAVING           STO-SS ON UNIT   1016 AT TIME STEP      9, STRESS PERIOD     10
 UBDSV1 SAVING           STO-SY ON UNIT   1016 AT TIME STEP      9, STRESS PERIOD     10
 UBDSV1 SAVING     FLOW-JA-FACE ON UNIT   1016 AT TIME STEP      9, STRESS PERIOD     10
 UBDSV06 SAVING              RCH IN MODEL TEST_TRANS       PACKAGE TEST_TRANS      CONNECTED TO MODEL TEST_TRANS       PACKAGE RCHA             ON UNIT   1016 AT TIME STEP      9, STRESS PERIOD     10
 UBDSV06 SAVING              CHD IN MODEL TEST_TRANS       PACKAGE TEST_TRANS      CONNECTED TO MODEL TEST_TRANS       PACKAGE CHD              ON UNIT   1016 AT TIME STEP      9, STRESS PERIOD     10

 HEAD WILL BE SAVED ON UNIT 1017 AT END OF TIME STEP    9, STRESS PERIOD   10
 UBDSV1 SAVING           STO-SS ON UNIT   1016 AT TIME STEP     10, STRESS PERIOD     10
 UBDSV1 SAVING           STO-SY ON UNIT   1016 AT TIME STEP     10, STRESS PERIOD     10
 UBDSV1 SAVING     FLOW-JA-FACE ON UNIT   1016 AT TIME STEP     10, STRESS PERIOD     10
 UBDSV06 SAVING              RCH IN MODEL TEST_TRANS       PACKAGE TEST_TRANS      CONNECTED TO MODEL TEST_TRANS       PACKAGE RCHA             ON UNIT   1016 AT TIME STEP     10, STRESS PERIOD     10
 UBDSV06 SAVING              CHD IN MODEL TEST_TRANS       PACKAGE TEST_TRANS      CONNECTED TO MODEL TEST_TRANS       PACKAGE CHD              ON UNIT   1016 AT TIME STEP     10, STRESS PERIOD     10
1
  HEAD IN LAYER   1 AT END OF TIME STEP  10 IN STRESS PERIOD   10
  ---------------------------------------------------------------------------

            1           2           3           4           5           6           7           8           9          10
           11          12          13          14          15          16          17          18          19          20
           21          22          23          24          25          26          27          28          29          30
 ........................................................................................................................
   1    27.85       27.84       27.83       27.82       27.80       27.78       27.75       27.72       27.68       27.64    
        27.60       27.54       27.49       27.42       27.35       27.28       27.19       27.10       27.01       26.90    
        26.79       26.66       26.53       26.38       26.22       26.04       25.84       25.61       25.36       25.06    
   2    27.85       27.84       27.83       27.82       27.80       27.78       27.75       27.72       27.68       27.64    
        27.60       27.54       27.49       27.42       27.35       27.28       27.19       27.10       27.01       26.90    
        26.79       26.66       26.53       26.38       26.22       26.04       25.84       25.61       25.36       25.06    
   3    27.85       27.84       27.83       27.82       27.80       27.78       27.75       27.72       27.68       27.64    
        27.60       27.54       27.49       27.42       27.35       27.28       27.19       27.10       27.01       26.90    
        26.79       26.66       26.53       26.38       26.22       26.04       25.84       25.61       25.36       25.06    
   4    27.85       27.84       27.83       27.82       27.80       27.78       27.75       27.72       27.68       27.64    
        27.60       27.54       27.49       27.42       27.35       27.28       27.19       27.10       27.01       26.90    
        26.79       26.66       26.53       26.38       26.22       26.04       25.84       25.61       25.36       25.06    
   5    27.85       27.84       27.83       27.82       27.80       27.78       27.75       27.72       27.68       27.64    
        27.60       27.54       27.49       27.42       27.35       27.28       27.19       27.10       27.01       26.90    
        26.79       26.66       26.53       26.38       26.22       26.04       25.84       25.61       25.36       25.06    
   6    27.85       27.84       27.83       27.82       27.80       27.78       27.75       27.72       27.68       27.64    
        27.60       27.54       27.49       27.42       27.35       27.28       27.19       27.10       27.01       26.90    
        26.79       26.66       26.53       26.38       26.22       26.04       25.84       25.61       25.36       25.06    
   7    27.85       27.84       27.83       27.82       27.80       27.78       27.75       27.72       27.68       27.64    
        27.60       27.54       27.49       27.42       27.35       27.28       27.19       27.10       27.01       26.90    
        26.79       26.66       26.53       26.38       26.22       26.04       25.84       25.61       25.36       25.06    
   8    27.85       27.84       27.83       27.82       27.80       27.78       27.75       27.72       27.68       27.64    
        27.60       27.54       27.49       27.42       27.35       27.28       27.19       27.10       27.01       26.90    
        26.79       26.66       26.53       26.38       26.22       26.04       25.84       25.61       25.36       25.06    
   9    27.85       27.84       27.83       27.82       27.80       27.78       27.75       27.72       27.68       27.64    
        27.60       27.54       27.49       27.42       27.35       27.28       27.19       27.10       27.01       26.90    
        26.79       26.66       26.53       26.38       26.22       26.04       25.84       25.61       25.36       25.06    
  10    27.85       27.84       27.83       27.82       27.80       27.78       27.75       27.72       27.68       27.64    
        27.60       27.54       27.49       27.42       27.35       27.28       27.19       27.10       27.01       26.90    
        26.79       26.66       26.53       26.38       26.22       26.04       25.84       25.61       25.36       25.06    
  11    27.85       27.84       27.83       27.82       27.80       27.78       27.75       27.72       27.68       27.64    
        27.60       27.54       27.49       27.42       27.35       27.28       27.19       27.10       27.01       26.90    
        26.79       26.66       26.53       26.38       26.22       26.04       25.84       25.61       25.36       25.06    
  12    27.85       27.84       27.83       27.82       27.80       27.78       27.75       27.72       27.68       27.64    
        27.60       27.54       27.49       27.42       27.35       27.28       27.19       27.10       27.01       26.90    
        26.79       26.66       26.53       26.38       26.22       26.04       25.84       25.61       25.36       25.06    
  13    27.85       27.84       27.83       27.82       27.80       27.78       27.75       27.72       27.68       27.64    
        27.60       27.54       27.49       27.42       27.35       27.28       27.19       27.10       27.01       26.90    
        26.79       26.66       26.53       26.38       26.22       26.04       25.84       25.61       25.36       25.06    
  14    27.85       27.84       27.83       27.82       27.80       27.78       27.75       27.72       27.68       27.64    
        27.60       27.54       27.49       27.42       27.35       27.28       27.19       27.10       27.01       26.90    
        26.79       26.66       26.53       26.38       26.22       26.04       25.84       25.61       25.36       25.06    
  15    27.85       27.84       27.83       27.82       27.80       27.78       27.75       27.72       27.68       27.64    
        27.60       27.54       27.49       27.42       27.35       27.28       27.19       27.10       27.01       26.90    
        26.79       26.66       26.53       26.38       26.22       26.04       25.84       25.61       25.36       25.06    
  16    27.85       27.84       27.83       27.82       27.80       27.78       27.75       27.72       27.68       27.64    
        27.60       27.54       27.49       27.42       27.35       27.28       27.19       27.10       27.01       26.90    
        26.79       26.66       26.53       26.38       26.22       26.04       25.84       25.61       25.36       25.06    
  17    27.85       27.84       27.83       27.82       27.80       27.78       27.75       27.72       27.68       27.64    
        27.60       27.54       27.49       27.42       27.35       27.28       27.19       27.10       27.01       26.90    
        26.79       26.66       26.53       26.38       26.22       26.04       25.84       25.61       25.36       25.06    
  18    27.85       27.84       27.83       27.82       27.80       27.78       27.75       27.72       27.68       27.64    
        27.60       27.54       27.49       27.42       27.35       27.28       27.19       27.10       27.01       26.90    
        26.79       26.66       26.53       26.38       26.22       26.04       25.84       25.61       25.36       25.06    
  19    27.85       27.84       27.83       27.82       27.80       27.78       27.75       27.72       27.68       27.64    
        27.60       27.54       27.49       27.42       27.35       27.28       27.19       27.10       27.01       26.90    
        26.79       26.66       26.53       26.38       26.22       26.04       25.84       25.61       25.36       25.06    
  20    27.85       27.84       27.83       27.82       27.80       27.78       27.75       27.72       27.68       27.64    
        27.60       27.54       27.49       27.42       27.35       27.28       27.19       27.10       27.01       26.90    
        26.79       26.66       26.53       26.38       26.22       26.04       25.84       25.61       25.36       25.06    
  21    27.85       27.84       27.83       27.82       27.80       27.78       27.75       27.72       27.68       27.64    
        27.60       27.54       27.49       27.42       27.35       27.28       27.19       27.10       27.01       26.90    
        26.79       26.66       26.53       26.38       26.22       26.04       25.84       25.61       25.36       25.06    
  22    27.85       27.84       27.83       27.82       27.80       27.78       27.75       27.72       27.68       27.64    
        27.60       27.54       27.49       27.42       27.35       27.28       27.19       27.10       27.01       26.90    
        26.79       26.66       26.53       26.38       26.22       26.04       25.84       25.61       25.36       25.06    
  23    27.85       27.84       27.83       27.82       27.80       27.78       27.75       27.72       27.68       27.64    
        27.60       27.54       27.49       27.42       27.35       27.28       27.19       27.10       27.01       26.90    
        26.79       26.66       26.53       26.38       26.22       26.04       25.84       25.61       25.36       25.06    
  24    27.85       27.84       27.83       27.82       27.80       27.78       27.75       27.72       27.68       27.64    
        27.59       27.54       27.49       27.42       27.35       27.28       27.19       27.10       27.01       26.90    
        26.79       26.66       26.53       26.38       26.22       26.04       25.84       25.61       25.36       25.06    
  25    27.85       27.84       27.83       27.82       27.80       27.78       27.75       27.72       27.68       27.64    
        27.59       27.54       27.49       27.42       27.35       27.28       27.19       27.10       27.01       26.90    
        26.79       26.66       26.53       26.38       26.22       26.04       25.84       25.61       25.36       25.06    
  26    27.85       27.84       27.83       27.82       27.80       27.78       27.75       27.72       27.68       27.64    
        27.59       27.54       27.49       27.42       27.35       27.28       27.19       27.10       27.01       26.90    
        26.79       26.66       26.53       26.38       26.22       26.04       25.84       25.61       25.36       25.06    
  27    27.85       27.84       27.83       27.82       27.80       27.78       27.75       27.72       27.68       27.64    
        27.59       27.54       27.49       27.42       27.35       27.28       27.19       27.10       27.01       26.90    
        26.79       26.66       26.53       26.38       26.22       26.04       25.84       25.61       25.36       25.06    
  28    27.85       27.84       27.83       27.82       27.80       27.78       27.75       27.72       27.68       27.64    
        27.59       27.54       27.49       27.42       27.35       27.28       27.19       27.10       27.01       26.90    
        26.79       26.66       26.53       26.38       26.22       26.04       25.84       25.61       25.36       25.06    
  29    27.85       27.84       27.83       27.82       27.80       27.78       27.75       27.72       27.68       27.64    
        27.59       27.54       27.49       27.42       27.35       27.28       27.19       27.10       27.01       26.90    
        26.79       26.66       26.53       26.38       26.22       26.04       25.84       25.61       25.36       25.06    
  30    27.85       27.84       27.83       27.82       27.80       27.78       27.75       27.72       27.68       27.64    
        27.59       27.54       27.49       27.42       27.35       27.28       27.19       27.10       27.01       26.90    
        26.79       26.66       26.53       26.38       26.22       26.04       25.84       25.61       25.36       25.06    

 HEAD WILL BE SAVED ON UNIT 1017 AT END OF TIME STEP   10, STRESS PERIOD   10


  VOLUME BUDGET FOR ENTIRE MODEL AT END OF TIME STEP   10, STRESS PERIOD  10
  ---------------------------------------------------------------------------------------------------

     CUMULATIVE VOLUME      L**3       RATES FOR THIS TIME STEP      L**3/T          PACKAGE NAME    
     ------------------                 ------------------------                     ----------------

           IN:                                      IN:
           ---                                      ---
              STO-SS =          21.7864                STO-SS =           0.0000     STORAGE         
              STO-SY =       13555.3129                STO-SY =           0.0000     STORAGE         
                 RCH =       39209.6055                   RCH =         190.6849     RCHA            
                 CHD =           0.0000                   CHD =           0.0000     CHD             

            TOTAL IN =       52786.7047              TOTAL IN =         190.6849

          OUT:                                     OUT:
          ----                                     ----
              STO-SS =           4.4361                STO-SS =       3.1925E-02     STORAGE         
              STO-SY =        2824.3168                STO-SY =          20.0758     STORAGE         
                 RCH =           0.0000                   RCH =           0.0000     RCHA            
                 CHD =       49956.9160                   CHD =         170.5930     CHD             

           TOTAL OUT =       52785.6689             TOTAL OUT =         190.7007

            IN - OUT =           1.0358              IN - OUT =      -1.5852E-02

 PERCENT DISCREPANCY =           0.00     PERCENT DISCREPANCY =          -0.01




         TIME SUMMARY AT END OF TIME STEP   10 IN STRESS PERIOD   10
                    SECONDS     MINUTES      HOURS       DAYS        YEARS
                    -----------------------------------------------------------
   TIME STEP LENGTH 2.59200E+05  4320.0      72.000      3.0000     8.21355E-03
 STRESS PERIOD TIME 2.59200E+06  43200.      720.00      30.000     8.21355E-02
         TOTAL TIME 2.34144E+07 3.90240E+05  6504.0      271.00     0.74196    

 OUTPUT CONTROL FOR STRESS PERIOD 11 IS REPEATED USING SETTINGS FROM A PREVIOUS STRESS PERIOD.


 STRESS PERIOD 11 IS TRANSIENT


                 RECHARGE =  0.2465750E-02
 UBDSV1 SAVING           STO-SS ON UNIT   1016 AT TIME STEP      1, STRESS PERIOD     11
 UBDSV1 SAVING           STO-SY ON UNIT   1016 AT TIME STEP      1, STRESS PERIOD     11
 UBDSV1 SAVING     FLOW-JA-FACE ON UNIT   1016 AT TIME STEP      1, STRESS PERIOD     11
 UBDSV06 SAVING              RCH IN MODEL TEST_TRANS       PACKAGE TEST_TRANS      CONNECTED TO MODEL TEST_TRANS       PACKAGE RCHA             ON UNIT   1016 AT TIME STEP      1, STRESS PERIOD     11
 UBDSV06 SAVING              CHD IN MODEL TEST_TRANS       PACKAGE TEST_TRANS      CONNECTED TO MODEL TEST_TRANS       PACKAGE CHD              ON UNIT   1016 AT TIME STEP      1, STRESS PERIOD     11
1
  HEAD IN LAYER   1 AT END OF TIME STEP   1 IN STRESS PERIOD   11
  ---------------------------------------------------------------------------

            1           2           3           4           5           6           7           8           9          10
           11          12          13          14          15          16          17          18          19          20
           21          22          23          24          25          26          27          28          29          30
 ........................................................................................................................
   1    27.86       27.85       27.84       27.83       27.81       27.79       27.76       27.73       27.69       27.65    
        27.60       27.55       27.49       27.43       27.36       27.28       27.20       27.11       27.01       26.91    
        26.79       26.66       26.52       26.37       26.19       26.00       25.76       25.47       25.07       24.36    
   2    27.86       27.85       27.84       27.83       27.81       27.79       27.76       27.73       27.69       27.65    
        27.60       27.55       27.49       27.43       27.36       27.28       27.20       27.11       27.01       26.91    
        26.79       26.66       26.52       26.37       26.19       26.00       25.76       25.47       25.07       24.36    
   3    27.86       27.85       27.84       27.83       27.81       27.79       27.76       27.73       27.69       27.65    
        27.60       27.55       27.49       27.43       27.36       27.28       27.20       27.11       27.01       26.91    
        26.79       26.66       26.52       26.37       26.19       26.00       25.76       25.47       25.07       24.36    
   4    27.86       27.85       27.84       27.83       27.81       27.79       27.76       27.73       27.69       27.65    
        27.60       27.55       27.49       27.43       27.36       27.28       27.20       27.11       27.01       26.91    
        26.79       26.66       26.52       26.37       26.19       26.00       25.76       25.47       25.07       24.36    
   5    27.86       27.85       27.84       27.83       27.81       27.79       27.76       27.73       27.69       27.65    
        27.60       27.55       27.49       27.43       27.36       27.28       27.20       27.11       27.01       26.91    
        26.79       26.66       26.52       26.37       26.19       26.00       25.76       25.47       25.07       24.36    
   6    27.86       27.85       27.84       27.83       27.81       27.79       27.76       27.73       27.69       27.65    
        27.60       27.55       27.49       27.43       27.36       27.28       27.20       27.11       27.01       26.91    
        26.79       26.66       26.52       26.37       26.19       26.00       25.76       25.47       25.07       24.36    
   7    27.86       27.85       27.84       27.83       27.81       27.79       27.76       27.73       27.69       27.65    
        27.60       27.55       27.49       27.43       27.36       27.28       27.20       27.11       27.01       26.91    
        26.79       26.66       26.52       26.37       26.19       26.00       25.76       25.47       25.07       24.36    
   8    27.86       27.85       27.84       27.83       27.81       27.79       27.76       27.73       27.69       27.65    
        27.60       27.55       27.49       27.43       27.36       27.28       27.20       27.11       27.01       26.91    
        26.79       26.66       26.52       26.37       26.19       26.00       25.76       25.47       25.07       24.36    
   9    27.86       27.85       27.84       27.83       27.81       27.79       27.76       27.73       27.69       27.65    
        27.60       27.55       27.49       27.43       27.36       27.28       27.20       27.11       27.01       26.91    
        26.79       26.66       26.52       26.37       26.19       26.00       25.76       25.47       25.07       24.36    
  10    27.86       27.85       27.84       27.83       27.81       27.79       27.76       27.73       27.69       27.65    
        27.60       27.55       27.49       27.43       27.36       27.28       27.20       27.11       27.01       26.91    
        26.79       26.66       26.52       26.37       26.19       26.00       25.76       25.47       25.07       24.36    
  11    27.86       27.85       27.84       27.83       27.81       27.79       27.76       27.73       27.69       27.65    
        27.60       27.55       27.49       27.43       27.36       27.28       27.20       27.11       27.01       26.91    
        26.79       26.66       26.52       26.37       26.19       26.00       25.76       25.47       25.07       24.36    
  12    27.86       27.85       27.84       27.83       27.81       27.79       27.76       27.73       27.69       27.65    
        27.60       27.55       27.49       27.43       27.36       27.28       27.20       27.11       27.01       26.91    
        26.79       26.66       26.52       26.37       26.19       26.00       25.76       25.47       25.07       24.36    
  13    27.86       27.85       27.84       27.83       27.81       27.79       27.76       27.73       27.69       27.65    
        27.60       27.55       27.49       27.43       27.36       27.28       27.20       27.11       27.01       26.91    
        26.79       26.66       26.52       26.37       26.19       26.00       25.76       25.47       25.07       24.36    
  14    27.86       27.85       27.84       27.83       27.81       27.79       27.76       27.73       27.69       27.65    
        27.60       27.55       27.49       27.43       27.36       27.28       27.20       27.11       27.01       26.91    
        26.79       26.66       26.52       26.37       26.19       26.00       25.76       25.47       25.07       24.36    
  15    27.86       27.85       27.84       27.83       27.81       27.79       27.76       27.73       27.69       27.65    
        27.60       27.55       27.49       27.43       27.36       27.28       27.20       27.11       27.01       26.91    
        26.79       26.66       26.52       26.37       26.19       26.00       25.76       25.47       25.07       24.36    
  16    27.86       27.85       27.84       27.83       27.81       27.79       27.76       27.73       27.69       27.65    
        27.60       27.55       27.49       27.43       27.36       27.28       27.20       27.11       27.01       26.91    
        26.79       26.66       26.52       26.37       26.19       26.00       25.76       25.47       25.07       24.36    
  17    27.86       27.85       27.84       27.83       27.81       27.79       27.76       27.73       27.69       27.65    
        27.60       27.55       27.49       27.43       27.36       27.28       27.20       27.11       27.01       26.91    
        26.79       26.66       26.52       26.37       26.19       26.00       25.76       25.47       25.07       24.36    
  18    27.86       27.85       27.84       27.83       27.81       27.79       27.76       27.73       27.69       27.65    
        27.60       27.55       27.49       27.43       27.36       27.28       27.20       27.11       27.01       26.91    
        26.79       26.66       26.52       26.37       26.19       26.00       25.76       25.47       25.07       24.36    
  19    27.86       27.85       27.84       27.83       27.81       27.79       27.76       27.73       27.69       27.65    
        27.60       27.55       27.49       27.43       27.36       27.28       27.20       27.11       27.01       26.91    
        26.79       26.66       26.52       26.37       26.19       26.00       25.76       25.47       25.07       24.36    
  20    27.86       27.85       27.84       27.83       27.81       27.79       27.76       27.73       27.69       27.65    
        27.60       27.55       27.49       27.43       27.36       27.28       27.20       27.11       27.01       26.91    
        26.79       26.66       26.52       26.37       26.19       26.00       25.76       25.47       25.07       24.36    
  21    27.86       27.85       27.84       27.83       27.81       27.79       27.76       27.73       27.69       27.65    
        27.60       27.55       27.49       27.43       27.36       27.28       27.20       27.11       27.01       26.91    
        26.79       26.66       26.52       26.37       26.19       26.00       25.76       25.47       25.07       24.36    
  22    27.86       27.85       27.84       27.83       27.81       27.79       27.76       27.73       27.69       27.65    
        27.60       27.55       27.49       27.43       27.36       27.28       27.20       27.11       27.01       26.91    
        26.79       26.66       26.52       26.37       26.19       26.00       25.76       25.47       25.07       24.36    
  23    27.86       27.85       27.84       27.83       27.81       27.79       27.76       27.73       27.69       27.65    
        27.60       27.55       27.49       27.43       27.36       27.28       27.20       27.11       27.01       26.91    
        26.79       26.66       26.52       26.37       26.19       26.00       25.76       25.47       25.07       24.36    
  24    27.86       27.85       27.84       27.83       27.81       27.79       27.76       27.73       27.69       27.65    
        27.60       27.55       27.49       27.43       27.36       27.28       27.20       27.11       27.01       26.91    
        26.79       26.66       26.52       26.37       26.19       26.00       25.76       25.47       25.07       24.36    
  25    27.86       27.85       27.84       27.83       27.81       27.79       27.76       27.73       27.69       27.65    
        27.60       27.55       27.49       27.43       27.36       27.28       27.20       27.11       27.01       26.91    
        26.79       26.66       26.52       26.37       26.19       26.00       25.76       25.47       25.07       24.36    
  26    27.86       27.85       27.84       27.83       27.81       27.79       27.76       27.73       27.69       27.65    
        27.60       27.55       27.49       27.43       27.36       27.28       27.20       27.11       27.01       26.91    
        26.79       26.66       26.52       26.37       26.19       26.00       25.76       25.47       25.07       24.36    
  27    27.86       27.85       27.84       27.83       27.81       27.79       27.76       27.73       27.69       27.65    
        27.60       27.55       27.49       27.43       27.36       27.28       27.20       27.11       27.01       26.91    
        26.79       26.66       26.52       26.37       26.19       26.00       25.76       25.47       25.07       24.36    
  28    27.86       27.85       27.84       27.83       27.81       27.79       27.76       27.73       27.69       27.65    
        27.60       27.55       27.49       27.43       27.36       27.28       27.20       27.11       27.01       26.91    
        26.79       26.66       26.52       26.37       26.19       26.00       25.76       25.47       25.07       24.36    
  29    27.86       27.85       27.84       27.83       27.81       27.79       27.76       27.73       27.69       27.65    
        27.60       27.55       27.49       27.43       27.36       27.28       27.20       27.11       27.01       26.91    
        26.79       26.66       26.52       26.37       26.19       26.00       25.76       25.47       25.07       24.36    
  30    27.86       27.85       27.84       27.83       27.81       27.79       27.76       27.73       27.69       27.65    
        27.60       27.55       27.49       27.43       27.36       27.28       27.20       27.11       27.01       26.91    
        26.79       26.66       26.52       26.37       26.19       26.00       25.76       25.47       25.07       24.36    

 HEAD WILL BE SAVED ON UNIT 1017 AT END OF TIME STEP    1, STRESS PERIOD   11



         TIME SUMMARY AT END OF TIME STEP    1 IN STRESS PERIOD   11
                    SECONDS     MINUTES      HOURS       DAYS        YEARS
                    -----------------------------------------------------------
   TIME STEP LENGTH 2.59200E+05  4320.0      72.000      3.0000     8.21355E-03
 STRESS PERIOD TIME 2.59200E+05  4320.0      72.000      3.0000     8.21355E-03
         TOTAL TIME 2.36736E+07 3.94560E+05  6576.0      274.00     0.75017    
 UBDSV1 SAVING           STO-SS ON UNIT   1016 AT TIME STEP      2, STRESS PERIOD     11
 UBDSV1 SAVING           STO-SY ON UNIT   1016 AT TIME STEP      2, STRESS PERIOD     11
 UBDSV1 SAVING     FLOW-JA-FACE ON UNIT   1016 AT TIME STEP      2, STRESS PERIOD     11
 UBDSV06 SAVING              RCH IN MODEL TEST_TRANS       PACKAGE TEST_TRANS      CONNECTED TO MODEL TEST_TRANS       PACKAGE RCHA             ON UNIT   1016 AT TIME STEP      2, STRESS PERIOD     11
 UBDSV06 SAVING              CHD IN MODEL TEST_TRANS       PACKAGE TEST_TRANS      CONNECTED TO MODEL TEST_TRANS       PACKAGE CHD              ON UNIT   1016 AT TIME STEP      2, STRESS PERIOD     11

 HEAD WILL BE SAVED ON UNIT 1017 AT END OF TIME STEP    2, STRESS PERIOD   11
 UBDSV1 SAVING           STO-SS ON UNIT   1016 AT TIME STEP      3, STRESS PERIOD     11
 UBDSV1 SAVING           STO-SY ON UNIT   1016 AT TIME STEP      3, STRESS PERIOD     11
 UBDSV1 SAVING     FLOW-JA-FACE ON UNIT   1016 AT TIME STEP      3, STRESS PERIOD     11
 UBDSV06 SAVING              RCH IN MODEL TEST_TRANS       PACKAGE TEST_TRANS      CONNECTED TO MODEL TEST_TRANS       PACKAGE RCHA             ON UNIT   1016 AT TIME STEP      3, STRESS PERIOD     11
 UBDSV06 SAVING              CHD IN MODEL TEST_TRANS       PACKAGE TEST_TRANS      CONNECTED TO MODEL TEST_TRANS       PACKAGE CHD              ON UNIT   1016 AT TIME STEP      3, STRESS PERIOD     11

 HEAD WILL BE SAVED ON UNIT 1017 AT END OF TIME STEP    3, STRESS PERIOD   11
 UBDSV1 SAVING           STO-SS ON UNIT   1016 AT TIME STEP      4, STRESS PERIOD     11
 UBDSV1 SAVING           STO-SY ON UNIT   1016 AT TIME STEP      4, STRESS PERIOD     11
 UBDSV1 SAVING     FLOW-JA-FACE ON UNIT   1016 AT TIME STEP      4, STRESS PERIOD     11
 UBDSV06 SAVING              RCH IN MODEL TEST_TRANS       PACKAGE TEST_TRANS      CONNECTED TO MODEL TEST_TRANS       PACKAGE RCHA             ON UNIT   1016 AT TIME STEP      4, STRESS PERIOD     11
 UBDSV06 SAVING              CHD IN MODEL TEST_TRANS       PACKAGE TEST_TRANS      CONNECTED TO MODEL TEST_TRANS       PACKAGE CHD              ON UNIT   1016 AT TIME STEP      4, STRESS PERIOD     11

 HEAD WILL BE SAVED ON UNIT 1017 AT END OF TIME STEP    4, STRESS PERIOD   11
 UBDSV1 SAVING           STO-SS ON UNIT   1016 AT TIME STEP      5, STRESS PERIOD     11
 UBDSV1 SAVING           STO-SY ON UNIT   1016 AT TIME STEP      5, STRESS PERIOD     11
 UBDSV1 SAVING     FLOW-JA-FACE ON UNIT   1016 AT TIME STEP      5, STRESS PERIOD     11
 UBDSV06 SAVING              RCH IN MODEL TEST_TRANS       PACKAGE TEST_TRANS      CONNECTED TO MODEL TEST_TRANS       PACKAGE RCHA             ON UNIT   1016 AT TIME STEP      5, STRESS PERIOD     11
 UBDSV06 SAVING              CHD IN MODEL TEST_TRANS       PACKAGE TEST_TRANS      CONNECTED TO MODEL TEST_TRANS       PACKAGE CHD              ON UNIT   1016 AT TIME STEP      5, STRESS PERIOD     11

 HEAD WILL BE SAVED ON UNIT 1017 AT END OF TIME STEP    5, STRESS PERIOD   11
 UBDSV1 SAVING           STO-SS ON UNIT   1016 AT TIME STEP      6, STRESS PERIOD     11
 UBDSV1 SAVING           STO-SY ON UNIT   1016 AT TIME STEP      6, STRESS PERIOD     11
 UBDSV1 SAVING     FLOW-JA-FACE ON UNIT   1016 AT TIME STEP      6, STRESS PERIOD     11
 UBDSV06 SAVING              RCH IN MODEL TEST_TRANS       PACKAGE TEST_TRANS      CONNECTED TO MODEL TEST_TRANS       PACKAGE RCHA             ON UNIT   1016 AT TIME STEP      6, STRESS PERIOD     11
 UBDSV06 SAVING              CHD IN MODEL TEST_TRANS       PACKAGE TEST_TRANS      CONNECTED TO MODEL TEST_TRANS       PACKAGE CHD              ON UNIT   1016 AT TIME STEP      6, STRESS PERIOD     11

 HEAD WILL BE SAVED ON UNIT 1017 AT END OF TIME STEP    6, STRESS PERIOD   11
 UBDSV1 SAVING           STO-SS ON UNIT   1016 AT TIME STEP      7, STRESS PERIOD     11
 UBDSV1 SAVING           STO-SY ON UNIT   1016 AT TIME STEP      7, STRESS PERIOD     11
 UBDSV1 SAVING     FLOW-JA-FACE ON UNIT   1016 AT TIME STEP      7, STRESS PERIOD     11
 UBDSV06 SAVING              RCH IN MODEL TEST_TRANS       PACKAGE TEST_TRANS      CONNECTED TO MODEL TEST_TRANS       PACKAGE RCHA             ON UNIT   1016 AT TIME STEP      7, STRESS PERIOD     11
 UBDSV06 SAVING              CHD IN MODEL TEST_TRANS       PACKAGE TEST_TRANS      CONNECTED TO MODEL TEST_TRANS       PACKAGE CHD              ON UNIT   1016 AT TIME STEP      7, STRESS PERIOD     11

 HEAD WILL BE SAVED ON UNIT 1017 AT END OF TIME STEP    7, STRESS PERIOD   11
 UBDSV1 SAVING           STO-SS ON UNIT   1016 AT TIME STEP      8, STRESS PERIOD     11
 UBDSV1 SAVING           STO-SY ON UNIT   1016 AT TIME STEP      8, STRESS PERIOD     11
 UBDSV1 SAVING     FLOW-JA-FACE ON UNIT   1016 AT TIME STEP      8, STRESS PERIOD     11
 UBDSV06 SAVING              RCH IN MODEL TEST_TRANS       PACKAGE TEST_TRANS      CONNECTED TO MODEL TEST_TRANS       PACKAGE RCHA             ON UNIT   1016 AT TIME STEP      8, STRESS PERIOD     11
 UBDSV06 SAVING              CHD IN MODEL TEST_TRANS       PACKAGE TEST_TRANS      CONNECTED TO MODEL TEST_TRANS       PACKAGE CHD              ON UNIT   1016 AT TIME STEP      8, STRESS PERIOD     11

 HEAD WILL BE SAVED ON UNIT 1017 AT END OF TIME STEP    8, STRESS PERIOD   11
 UBDSV1 SAVING           STO-SS ON UNIT   1016 AT TIME STEP      9, STRESS PERIOD     11
 UBDSV1 SAVING           STO-SY ON UNIT   1016 AT TIME STEP      9, STRESS PERIOD     11
 UBDSV1 SAVING     FLOW-JA-FACE ON UNIT   1016 AT TIME STEP      9, STRESS PERIOD     11
 UBDSV06 SAVING              RCH IN MODEL TEST_TRANS       PACKAGE TEST_TRANS      CONNECTED TO MODEL TEST_TRANS       PACKAGE RCHA             ON UNIT   1016 AT TIME STEP      9, STRESS PERIOD     11
 UBDSV06 SAVING              CHD IN MODEL TEST_TRANS       PACKAGE TEST_TRANS      CONNECTED TO MODEL TEST_TRANS       PACKAGE CHD              ON UNIT   1016 AT TIME STEP      9, STRESS PERIOD     11

 HEAD WILL BE SAVED ON UNIT 1017 AT END OF TIME STEP    9, STRESS PERIOD   11
 UBDSV1 SAVING           STO-SS ON UNIT   1016 AT TIME STEP     10, STRESS PERIOD     11
 UBDSV1 SAVING           STO-SY ON UNIT   1016 AT TIME STEP     10, STRESS PERIOD     11
 UBDSV1 SAVING     FLOW-JA-FACE ON UNIT   1016 AT TIME STEP     10, STRESS PERIOD     11
 UBDSV06 SAVING              RCH IN MODEL TEST_TRANS       PACKAGE TEST_TRANS      CONNECTED TO MODEL TEST_TRANS       PACKAGE RCHA             ON UNIT   1016 AT TIME STEP     10, STRESS PERIOD     11
 UBDSV06 SAVING              CHD IN MODEL TEST_TRANS       PACKAGE TEST_TRANS      CONNECTED TO MODEL TEST_TRANS       PACKAGE CHD              ON UNIT   1016 AT TIME STEP     10, STRESS PERIOD     11
1
  HEAD IN LAYER   1 AT END OF TIME STEP  10 IN STRESS PERIOD   11
  ---------------------------------------------------------------------------

            1           2           3           4           5           6           7           8           9          10
           11          12          13          14          15          16          17          18          19          20
           21          22          23          24          25          26          27          28          29          30
 ........................................................................................................................
   1    27.93       27.92       27.91       27.90       27.88       27.86       27.83       27.79       27.75       27.71    
        27.66       27.60       27.54       27.47       27.39       27.31       27.22       27.12       27.00       26.88    
        26.75       26.60       26.44       26.25       26.05       25.82       25.56       25.25       24.87       24.36    
   2    27.93       27.92       27.91       27.90       27.88       27.86       27.83       27.79       27.75       27.71    
        27.66       27.60       27.54       27.47       27.39       27.31       27.22       27.12       27.00       26.88    
        26.75       26.60       26.44       26.25       26.05       25.82       25.56       25.25       24.87       24.36    
   3    27.93       27.92       27.91       27.90       27.88       27.86       27.83       27.79       27.75       27.71    
        27.66       27.60       27.54       27.47       27.39       27.31       27.22       27.12       27.00       26.88    
        26.75       26.60       26.44       26.25       26.05       25.82       25.56       25.25       24.87       24.36    
   4    27.93       27.92       27.91       27.90       27.88       27.86       27.83       27.79       27.75       27.71    
        27.66       27.60       27.54       27.47       27.39       27.31       27.22       27.12       27.00       26.88    
        26.75       26.60       26.44       26.25       26.05       25.82       25.56       25.25       24.87       24.36    
   5    27.93       27.92       27.91       27.90       27.88       27.86       27.83       27.79       27.75       27.71    
        27.66       27.60       27.54       27.47       27.39       27.31       27.22       27.12       27.00       26.88    
        26.75       26.60       26.44       26.25       26.05       25.82       25.56       25.25       24.87       24.36    
   6    27.93       27.92       27.91       27.90       27.88       27.86       27.83       27.79       27.75       27.71    
        27.66       27.60       27.54       27.47       27.39       27.31       27.22       27.12       27.00       26.88    
        26.75       26.60       26.44       26.25       26.05       25.82       25.56       25.25       24.87       24.36    
   7    27.93       27.92       27.91       27.90       27.88       27.86       27.83       27.79       27.75       27.71    
        27.66       27.60       27.54       27.47       27.39       27.31       27.22       27.12       27.00       26.88    
        26.75       26.60       26.44       26.25       26.05       25.82       25.56       25.25       24.87       24.36    
   8    27.93       27.92       27.91       27.90       27.88       27.86       27.83       27.79       27.75       27.71    
        27.66       27.60       27.54       27.47       27.39       27.31       27.22       27.12       27.00       26.88    
        26.75       26.60       26.44       26.25       26.05       25.82       25.56       25.25       24.87       24.36    
   9    27.93       27.92       27.91       27.90       27.88       27.86       27.83       27.79       27.75       27.71    
        27.66       27.60       27.54       27.47       27.39       27.31       27.22       27.12       27.00       26.88    
        26.75       26.60       26.44       26.25       26.05       25.82       25.56       25.25       24.87       24.36    
  10    27.93       27.92       27.91       27.90       27.88       27.86       27.83       27.79       27.75       27.71    
        27.66       27.60       27.54       27.47       27.39       27.31       27.22       27.12       27.00       26.88    
        26.75       26.60       26.44       26.25       26.05       25.82       25.56       25.25       24.87       24.36    
  11    27.93       27.92       27.91       27.90       27.88       27.86       27.83       27.79       27.75       27.71    
        27.66       27.60       27.54       27.47       27.39       27.31       27.22       27.12       27.00       26.88    
        26.75       26.60       26.44       26.25       26.05       25.82       25.56       25.25       24.87       24.36    
  12    27.93       27.92       27.91       27.90       27.88       27.86       27.83       27.79       27.75       27.71    
        27.66       27.60       27.54       27.47       27.39       27.31       27.22       27.12       27.00       26.88    
        26.75       26.60       26.44       26.25       26.05       25.82       25.56       25.25       24.87       24.36    
  13    27.93       27.92       27.91       27.90       27.88       27.86       27.83       27.79       27.75       27.71    
        27.66       27.60       27.54       27.47       27.39       27.31       27.22       27.12       27.00       26.88    
        26.75       26.60       26.44       26.25       26.05       25.82       25.56       25.25       24.87       24.36    
  14    27.93       27.92       27.91       27.90       27.88       27.86       27.83       27.79       27.75       27.71    
        27.66       27.60       27.54       27.47       27.39       27.31       27.22       27.12       27.00       26.88    
        26.75       26.60       26.44       26.25       26.05       25.82       25.56       25.25       24.87       24.36    
  15    27.93       27.92       27.91       27.90       27.88       27.86       27.83       27.79       27.75       27.71    
        27.66       27.60       27.54       27.47       27.39       27.31       27.22       27.12       27.00       26.88    
        26.75       26.60       26.44       26.25       26.05       25.82       25.56       25.25       24.87       24.36    
  16    27.93       27.92       27.91       27.90       27.88       27.86       27.83       27.79       27.75       27.71    
        27.66       27.60       27.54       27.47       27.39       27.31       27.22       27.12       27.00       26.88    
        26.75       26.60       26.44       26.25       26.05       25.82       25.56       25.25       24.87       24.36    
  17    27.93       27.92       27.91       27.90       27.88       27.86       27.83       27.79       27.75       27.71    
        27.66       27.60       27.54       27.47       27.39       27.31       27.22       27.12       27.00       26.88    
        26.75       26.60       26.44       26.25       26.05       25.82       25.56       25.25       24.87       24.36    
  18    27.93       27.92       27.91       27.90       27.88       27.86       27.83       27.79       27.75       27.71    
        27.66       27.60       27.54       27.47       27.39       27.31       27.22       27.12       27.00       26.88    
        26.75       26.60       26.44       26.25       26.05       25.82       25.56       25.25       24.87       24.36    
  19    27.93       27.92       27.91       27.90       27.88       27.86       27.83       27.79       27.75       27.71    
        27.66       27.60       27.54       27.47       27.39       27.31       27.22       27.12       27.00       26.88    
        26.75       26.60       26.44       26.25       26.05       25.82       25.56       25.25       24.87       24.36    
  20    27.93       27.92       27.91       27.90       27.88       27.86       27.83       27.79       27.75       27.71    
        27.66       27.60       27.54       27.47       27.39       27.31       27.22       27.12       27.00       26.88    
        26.75       26.60       26.44       26.25       26.05       25.82       25.56       25.25       24.87       24.36    
  21    27.93       27.92       27.91       27.90       27.88       27.86       27.83       27.79       27.75       27.71    
        27.66       27.60       27.54       27.47       27.39       27.31       27.22       27.12       27.00       26.88    
        26.75       26.60       26.44       26.25       26.05       25.82       25.56       25.25       24.87       24.36    
  22    27.93       27.92       27.91       27.90       27.88       27.86       27.83       27.79       27.75       27.71    
        27.66       27.60       27.54       27.47       27.39       27.31       27.22       27.12       27.00       26.88    
        26.75       26.60       26.44       26.25       26.05       25.82       25.56       25.25       24.87       24.36    
  23    27.93       27.92       27.91       27.90       27.88       27.86       27.83       27.79       27.75       27.71    
        27.66       27.60       27.54       27.47       27.39       27.31       27.22       27.12       27.00       26.88    
        26.75       26.60       26.44       26.25       26.05       25.82       25.56       25.25       24.87       24.36    
  24    27.93       27.92       27.91       27.90       27.88       27.86       27.83       27.79       27.75       27.71    
        27.66       27.60       27.54       27.47       27.39       27.31       27.22       27.12       27.00       26.88    
        26.75       26.60       26.44       26.25       26.05       25.82       25.56       25.25       24.87       24.36    
  25    27.93       27.92       27.91       27.90       27.88       27.86       27.83       27.79       27.75       27.71    
        27.66       27.60       27.54       27.47       27.39       27.31       27.22       27.12       27.00       26.88    
        26.75       26.60       26.44       26.25       26.05       25.82       25.56       25.25       24.87       24.36    
  26    27.93       27.92       27.91       27.90       27.88       27.86       27.83       27.79       27.75       27.71    
        27.66       27.60       27.54       27.47       27.39       27.31       27.22       27.12       27.00       26.88    
        26.75       26.60       26.44       26.25       26.05       25.82       25.56       25.25       24.87       24.36    
  27    27.93       27.92       27.91       27.90       27.88       27.86       27.83       27.79       27.75       27.71    
        27.66       27.60       27.54       27.47       27.39       27.31       27.22       27.12       27.00       26.88    
        26.75       26.60       26.44       26.25       26.05       25.82       25.56       25.25       24.87       24.36    
  28    27.93       27.92       27.91       27.90       27.88       27.86       27.83       27.79       27.75       27.71    
        27.66       27.60       27.54       27.47       27.39       27.31       27.22       27.12       27.00       26.88    
        26.75       26.60       26.44       26.25       26.05       25.82       25.56       25.25       24.87       24.36    
  29    27.93       27.92       27.91       27.90       27.88       27.86       27.83       27.79       27.75       27.71    
        27.66       27.60       27.54       27.47       27.39       27.31       27.22       27.12       27.00       26.88    
        26.75       26.60       26.44       26.25       26.05       25.82       25.56       25.25       24.87       24.36    
  30    27.93       27.92       27.91       27.90       27.88       27.86       27.83       27.79       27.75       27.71    
        27.66       27.60       27.54       27.47       27.39       27.31       27.22       27.12       27.00       26.88    
        26.75       26.60       26.44       26.25       26.05       25.82       25.56       25.25       24.87       24.36    

 HEAD WILL BE SAVED ON UNIT 1017 AT END OF TIME STEP   10, STRESS PERIOD   11


  VOLUME BUDGET FOR ENTIRE MODEL AT END OF TIME STEP   10, STRESS PERIOD  11
  ---------------------------------------------------------------------------------------------------

     CUMULATIVE VOLUME      L**3       RATES FOR THIS TIME STEP      L**3/T          PACKAGE NAME    
     ------------------                 ------------------------                     ----------------

           IN:                                      IN:
           ---                                      ---
              STO-SS =          23.3943                STO-SS =       1.3523E-02     STORAGE         
              STO-SY =       14685.8387                STO-SY =           9.2783     STORAGE         
                 RCH =       45645.2130                   RCH =         214.5203     RCHA            
                 CHD =           0.0000                   CHD =           0.0000     CHD             

            TOTAL IN =       60354.4460              TOTAL IN =         223.8121

          OUT:                                     OUT:
          ----                                     ----
              STO-SS =           5.5337                STO-SS =       2.6089E-02     STORAGE         
              STO-SY =        3502.1425                STO-SY =          16.0191     STORAGE         
                 RCH =           0.0000                   RCH =           0.0000     RCHA            
                 CHD =       56845.7429                   CHD =         207.7630     CHD             

           TOTAL OUT =       60353.4191             TOTAL OUT =         223.8081

            IN - OUT =           1.0269              IN - OUT =       3.9454E-03

 PERCENT DISCREPANCY =           0.00     PERCENT DISCREPANCY =           0.00




         TIME SUMMARY AT END OF TIME STEP   10 IN STRESS PERIOD   11
                    SECONDS     MINUTES      HOURS       DAYS        YEARS
                    -----------------------------------------------------------
   TIME STEP LENGTH 2.59200E+05  4320.0      72.000      3.0000     8.21355E-03
 STRESS PERIOD TIME 2.59200E+06  43200.      720.00      30.000     8.21355E-02
         TOTAL TIME 2.60064E+07 4.33440E+05  7224.0      301.00     0.82409    

 OUTPUT CONTROL FOR STRESS PERIOD 12 IS REPEATED USING SETTINGS FROM A PREVIOUS STRESS PERIOD.


 STRESS PERIOD 12 IS TRANSIENT


                 RECHARGE =  0.2739730E-02
 UBDSV1 SAVING           STO-SS ON UNIT   1016 AT TIME STEP      1, STRESS PERIOD     12
 UBDSV1 SAVING           STO-SY ON UNIT   1016 AT TIME STEP      1, STRESS PERIOD     12
 UBDSV1 SAVING     FLOW-JA-FACE ON UNIT   1016 AT TIME STEP      1, STRESS PERIOD     12
 UBDSV06 SAVING              RCH IN MODEL TEST_TRANS       PACKAGE TEST_TRANS      CONNECTED TO MODEL TEST_TRANS       PACKAGE RCHA             ON UNIT   1016 AT TIME STEP      1, STRESS PERIOD     12
 UBDSV06 SAVING              CHD IN MODEL TEST_TRANS       PACKAGE TEST_TRANS      CONNECTED TO MODEL TEST_TRANS       PACKAGE CHD              ON UNIT   1016 AT TIME STEP      1, STRESS PERIOD     12
1
  HEAD IN LAYER   1 AT END OF TIME STEP   1 IN STRESS PERIOD   12
  ---------------------------------------------------------------------------

            1           2           3           4           5           6           7           8           9          10
           11          12          13          14          15          16          17          18          19          20
           21          22          23          24          25          26          27          28          29          30
 ........................................................................................................................
   1    27.94       27.93       27.92       27.91       27.89       27.87       27.84       27.80       27.76       27.72    
        27.67       27.61       27.55       27.48       27.40       27.31       27.22       27.12       27.01       26.88    
        26.75       26.60       26.44       26.25       26.05       25.82       25.55       25.24       24.86       24.34    
   2    27.94       27.93       27.92       27.91       27.89       27.87       27.84       27.80       27.76       27.72    
        27.67       27.61       27.55       27.48       27.40       27.31       27.22       27.12       27.01       26.88    
        26.75       26.60       26.44       26.25       26.05       25.82       25.55       25.24       24.86       24.34    
   3    27.94       27.93       27.92       27.91       27.89       27.87       27.84       27.80       27.76       27.72    
        27.67       27.61       27.55       27.48       27.40       27.31       27.22       27.12       27.01       26.88    
        26.75       26.60       26.44       26.25       26.05       25.82       25.55       25.24       24.86       24.34    
   4    27.94       27.93       27.92       27.91       27.89       27.87       27.84       27.80       27.76       27.72    
        27.67       27.61       27.55       27.48       27.40       27.31       27.22       27.12       27.01       26.88    
        26.75       26.60       26.44       26.25       26.05       25.82       25.55       25.24       24.86       24.34    
   5    27.94       27.93       27.92       27.91       27.89       27.87       27.84       27.80       27.76       27.72    
        27.67       27.61       27.55       27.48       27.40       27.31       27.22       27.12       27.01       26.88    
        26.75       26.60       26.44       26.25       26.05       25.82       25.55       25.24       24.86       24.34    
   6    27.94       27.93       27.92       27.91       27.89       27.87       27.84       27.80       27.76       27.72    
        27.67       27.61       27.55       27.48       27.40       27.31       27.22       27.12       27.01       26.88    
        26.75       26.60       26.44       26.25       26.05       25.82       25.55       25.24       24.86       24.34    
   7    27.94       27.93       27.92       27.91       27.89       27.87       27.84       27.80       27.76       27.72    
        27.67       27.61       27.55       27.48       27.40       27.31       27.22       27.12       27.01       26.88    
        26.75       26.60       26.44       26.25       26.05       25.82       25.55       25.24       24.86       24.34    
   8    27.94       27.93       27.92       27.91       27.89       27.87       27.84       27.80       27.76       27.72    
        27.67       27.61       27.55       27.48       27.40       27.31       27.22       27.12       27.01       26.88    
        26.75       26.60       26.44       26.25       26.05       25.82       25.55       25.24       24.86       24.34    
   9    27.94       27.93       27.92       27.91       27.89       27.87       27.84       27.80       27.76       27.72    
        27.67       27.61       27.55       27.48       27.40       27.31       27.22       27.12       27.01       26.88    
        26.75       26.60       26.44       26.25       26.05       25.82       25.55       25.24       24.86       24.34    
  10    27.94       27.93       27.92       27.91       27.89       27.87       27.84       27.80       27.76       27.72    
        27.67       27.61       27.55       27.48       27.40       27.31       27.22       27.12       27.01       26.88    
        26.75       26.60       26.44       26.25       26.05       25.82       25.55       25.24       24.86       24.34    
  11    27.94       27.93       27.92       27.91       27.89       27.87       27.84       27.80       27.76       27.72    
        27.67       27.61       27.55       27.48       27.40       27.31       27.22       27.12       27.01       26.88    
        26.75       26.60       26.44       26.25       26.05       25.82       25.55       25.24       24.86       24.34    
  12    27.94       27.93       27.92       27.91       27.89       27.87       27.84       27.80       27.76       27.72    
        27.67       27.61       27.55       27.48       27.40       27.31       27.22       27.12       27.01       26.88    
        26.75       26.60       26.44       26.25       26.05       25.82       25.55       25.24       24.86       24.34    
  13    27.94       27.93       27.92       27.91       27.89       27.87       27.84       27.80       27.76       27.72    
        27.67       27.61       27.55       27.48       27.40       27.31       27.22       27.12       27.01       26.88    
        26.75       26.60       26.44       26.25       26.05       25.82       25.55       25.24       24.86       24.34    
  14    27.94       27.93       27.92       27.91       27.89       27.87       27.84       27.80       27.76       27.72    
        27.67       27.61       27.55       27.48       27.40       27.31       27.22       27.12       27.01       26.88    
        26.75       26.60       26.44       26.25       26.05       25.82       25.55       25.24       24.86       24.34    
  15    27.94       27.93       27.92       27.91       27.89       27.87       27.84       27.80       27.76       27.72    
        27.67       27.61       27.55       27.48       27.40       27.31       27.22       27.12       27.01       26.88    
        26.75       26.60       26.44       26.25       26.05       25.82       25.55       25.24       24.86       24.34    
  16    27.94       27.93       27.92       27.91       27.89       27.87       27.84       27.80       27.76       27.72    
        27.67       27.61       27.55       27.48       27.40       27.31       27.22       27.12       27.01       26.88    
        26.75       26.60       26.44       26.25       26.05       25.82       25.55       25.24       24.86       24.34    
  17    27.94       27.93       27.92       27.91       27.89       27.87       27.84       27.80       27.76       27.72    
        27.67       27.61       27.55       27.48       27.40       27.31       27.22       27.12       27.01       26.88    
        26.75       26.60       26.44       26.25       26.05       25.82       25.55       25.24       24.86       24.34    
  18    27.94       27.93       27.92       27.91       27.89       27.87       27.84       27.80       27.76       27.72    
        27.67       27.61       27.55       27.48       27.40       27.31       27.22       27.12       27.01       26.88    
        26.75       26.60       26.44       26.25       26.05       25.82       25.55       25.24       24.86       24.34    
  19    27.94       27.93       27.92       27.91       27.89       27.87       27.84       27.80       27.76       27.72    
        27.67       27.61       27.55       27.48       27.40       27.31       27.22       27.12       27.01       26.88    
        26.75       26.60       26.44       26.25       26.05       25.82       25.55       25.24       24.86       24.34    
  20    27.94       27.93       27.92       27.91       27.89       27.87       27.84       27.80       27.76       27.72    
        27.67       27.61       27.55       27.48       27.40       27.31       27.22       27.12       27.01       26.88    
        26.75       26.60       26.44       26.25       26.05       25.82       25.55       25.24       24.86       24.34    
  21    27.94       27.93       27.92       27.91       27.89       27.87       27.84       27.80       27.76       27.72    
        27.67       27.61       27.55       27.48       27.40       27.31       27.22       27.12       27.01       26.88    
        26.75       26.60       26.44       26.25       26.05       25.82       25.55       25.24       24.86       24.34    
  22    27.94       27.93       27.92       27.91       27.89       27.87       27.84       27.80       27.76       27.72    
        27.67       27.61       27.55       27.48       27.40       27.31       27.22       27.12       27.01       26.88    
        26.75       26.60       26.44       26.25       26.05       25.82       25.55       25.24       24.86       24.34    
  23    27.94       27.93       27.92       27.91       27.89       27.87       27.84       27.80       27.76       27.72    
        27.67       27.61       27.55       27.48       27.40       27.31       27.22       27.12       27.01       26.88    
        26.75       26.60       26.44       26.25       26.05       25.82       25.55       25.24       24.86       24.34    
  24    27.94       27.93       27.92       27.91       27.89       27.87       27.84       27.80       27.76       27.72    
        27.67       27.61       27.55       27.48       27.40       27.31       27.22       27.12       27.01       26.88    
        26.75       26.60       26.44       26.25       26.05       25.82       25.55       25.24       24.86       24.34    
  25    27.94       27.93       27.92       27.91       27.89       27.87       27.84       27.80       27.76       27.72    
        27.67       27.61       27.55       27.48       27.40       27.31       27.22       27.12       27.01       26.88    
        26.75       26.60       26.44       26.25       26.05       25.82       25.55       25.24       24.86       24.34    
  26    27.94       27.93       27.92       27.91       27.89       27.87       27.84       27.80       27.76       27.72    
        27.67       27.61       27.55       27.48       27.40       27.31       27.22       27.12       27.01       26.88    
        26.75       26.60       26.44       26.25       26.05       25.82       25.55       25.24       24.86       24.34    
  27    27.94       27.93       27.92       27.91       27.89       27.87       27.84       27.80       27.76       27.72    
        27.67       27.61       27.55       27.48       27.40       27.31       27.22       27.12       27.01       26.88    
        26.75       26.60       26.44       26.25       26.05       25.82       25.55       25.24       24.86       24.34    
  28    27.94       27.93       27.92       27.91       27.89       27.87       27.84       27.80       27.76       27.72    
        27.67       27.61       27.55       27.48       27.40       27.31       27.22       27.12       27.01       26.88    
        26.75       26.60       26.44       26.25       26.05       25.82       25.55       25.24       24.86       24.34    
  29    27.94       27.93       27.92       27.91       27.89       27.87       27.84       27.80       27.76       27.72    
        27.67       27.61       27.55       27.48       27.40       27.31       27.22       27.12       27.01       26.88    
        26.75       26.60       26.44       26.25       26.05       25.82       25.55       25.24       24.86       24.34    
  30    27.94       27.93       27.92       27.91       27.89       27.87       27.84       27.80       27.76       27.72    
        27.67       27.61       27.55       27.48       27.40       27.31       27.22       27.12       27.01       26.88    
        26.75       26.60       26.44       26.25       26.05       25.82       25.55       25.24       24.86       24.34    

 HEAD WILL BE SAVED ON UNIT 1017 AT END OF TIME STEP    1, STRESS PERIOD   12



         TIME SUMMARY AT END OF TIME STEP    1 IN STRESS PERIOD   12
                    SECONDS     MINUTES      HOURS       DAYS        YEARS
                    -----------------------------------------------------------
   TIME STEP LENGTH 2.59200E+05  4320.0      72.000      3.0000     8.21355E-03
 STRESS PERIOD TIME 2.59200E+05  4320.0      72.000      3.0000     8.21355E-03
         TOTAL TIME 2.62656E+07 4.37760E+05  7296.0      304.00     0.83231    
 UBDSV1 SAVING           STO-SS ON UNIT   1016 AT TIME STEP      2, STRESS PERIOD     12
 UBDSV1 SAVING           STO-SY ON UNIT   1016 AT TIME STEP      2, STRESS PERIOD     12
 UBDSV1 SAVING     FLOW-JA-FACE ON UNIT   1016 AT TIME STEP      2, STRESS PERIOD     12
 UBDSV06 SAVING              RCH IN MODEL TEST_TRANS       PACKAGE TEST_TRANS      CONNECTED TO MODEL TEST_TRANS       PACKAGE RCHA             ON UNIT   1016 AT TIME STEP      2, STRESS PERIOD     12
 UBDSV06 SAVING              CHD IN MODEL TEST_TRANS       PACKAGE TEST_TRANS      CONNECTED TO MODEL TEST_TRANS       PACKAGE CHD              ON UNIT   1016 AT TIME STEP      2, STRESS PERIOD     12

 HEAD WILL BE SAVED ON UNIT 1017 AT END OF TIME STEP    2, STRESS PERIOD   12
 UBDSV1 SAVING           STO-SS ON UNIT   1016 AT TIME STEP      3, STRESS PERIOD     12
 UBDSV1 SAVING           STO-SY ON UNIT   1016 AT TIME STEP      3, STRESS PERIOD     12
 UBDSV1 SAVING     FLOW-JA-FACE ON UNIT   1016 AT TIME STEP      3, STRESS PERIOD     12
 UBDSV06 SAVING              RCH IN MODEL TEST_TRANS       PACKAGE TEST_TRANS      CONNECTED TO MODEL TEST_TRANS       PACKAGE RCHA             ON UNIT   1016 AT TIME STEP      3, STRESS PERIOD     12
 UBDSV06 SAVING              CHD IN MODEL TEST_TRANS       PACKAGE TEST_TRANS      CONNECTED TO MODEL TEST_TRANS       PACKAGE CHD              ON UNIT   1016 AT TIME STEP      3, STRESS PERIOD     12

 HEAD WILL BE SAVED ON UNIT 1017 AT END OF TIME STEP    3, STRESS PERIOD   12
 UBDSV1 SAVING           STO-SS ON UNIT   1016 AT TIME STEP      4, STRESS PERIOD     12
 UBDSV1 SAVING           STO-SY ON UNIT   1016 AT TIME STEP      4, STRESS PERIOD     12
 UBDSV1 SAVING     FLOW-JA-FACE ON UNIT   1016 AT TIME STEP      4, STRESS PERIOD     12
 UBDSV06 SAVING              RCH IN MODEL TEST_TRANS       PACKAGE TEST_TRANS      CONNECTED TO MODEL TEST_TRANS       PACKAGE RCHA             ON UNIT   1016 AT TIME STEP      4, STRESS PERIOD     12
 UBDSV06 SAVING              CHD IN MODEL TEST_TRANS       PACKAGE TEST_TRANS      CONNECTED TO MODEL TEST_TRANS       PACKAGE CHD              ON UNIT   1016 AT TIME STEP      4, STRESS PERIOD     12

 HEAD WILL BE SAVED ON UNIT 1017 AT END OF TIME STEP    4, STRESS PERIOD   12
 UBDSV1 SAVING           STO-SS ON UNIT   1016 AT TIME STEP      5, STRESS PERIOD     12
 UBDSV1 SAVING           STO-SY ON UNIT   1016 AT TIME STEP      5, STRESS PERIOD     12
 UBDSV1 SAVING     FLOW-JA-FACE ON UNIT   1016 AT TIME STEP      5, STRESS PERIOD     12
 UBDSV06 SAVING              RCH IN MODEL TEST_TRANS       PACKAGE TEST_TRANS      CONNECTED TO MODEL TEST_TRANS       PACKAGE RCHA             ON UNIT   1016 AT TIME STEP      5, STRESS PERIOD     12
 UBDSV06 SAVING              CHD IN MODEL TEST_TRANS       PACKAGE TEST_TRANS      CONNECTED TO MODEL TEST_TRANS       PACKAGE CHD              ON UNIT   1016 AT TIME STEP      5, STRESS PERIOD     12

 HEAD WILL BE SAVED ON UNIT 1017 AT END OF TIME STEP    5, STRESS PERIOD   12
 UBDSV1 SAVING           STO-SS ON UNIT   1016 AT TIME STEP      6, STRESS PERIOD     12
 UBDSV1 SAVING           STO-SY ON UNIT   1016 AT TIME STEP      6, STRESS PERIOD     12
 UBDSV1 SAVING     FLOW-JA-FACE ON UNIT   1016 AT TIME STEP      6, STRESS PERIOD     12
 UBDSV06 SAVING              RCH IN MODEL TEST_TRANS       PACKAGE TEST_TRANS      CONNECTED TO MODEL TEST_TRANS       PACKAGE RCHA             ON UNIT   1016 AT TIME STEP      6, STRESS PERIOD     12
 UBDSV06 SAVING              CHD IN MODEL TEST_TRANS       PACKAGE TEST_TRANS      CONNECTED TO MODEL TEST_TRANS       PACKAGE CHD              ON UNIT   1016 AT TIME STEP      6, STRESS PERIOD     12

 HEAD WILL BE SAVED ON UNIT 1017 AT END OF TIME STEP    6, STRESS PERIOD   12
 UBDSV1 SAVING           STO-SS ON UNIT   1016 AT TIME STEP      7, STRESS PERIOD     12
 UBDSV1 SAVING           STO-SY ON UNIT   1016 AT TIME STEP      7, STRESS PERIOD     12
 UBDSV1 SAVING     FLOW-JA-FACE ON UNIT   1016 AT TIME STEP      7, STRESS PERIOD     12
 UBDSV06 SAVING              RCH IN MODEL TEST_TRANS       PACKAGE TEST_TRANS      CONNECTED TO MODEL TEST_TRANS       PACKAGE RCHA             ON UNIT   1016 AT TIME STEP      7, STRESS PERIOD     12
 UBDSV06 SAVING              CHD IN MODEL TEST_TRANS       PACKAGE TEST_TRANS      CONNECTED TO MODEL TEST_TRANS       PACKAGE CHD              ON UNIT   1016 AT TIME STEP      7, STRESS PERIOD     12

 HEAD WILL BE SAVED ON UNIT 1017 AT END OF TIME STEP    7, STRESS PERIOD   12
 UBDSV1 SAVING           STO-SS ON UNIT   1016 AT TIME STEP      8, STRESS PERIOD     12
 UBDSV1 SAVING           STO-SY ON UNIT   1016 AT TIME STEP      8, STRESS PERIOD     12
 UBDSV1 SAVING     FLOW-JA-FACE ON UNIT   1016 AT TIME STEP      8, STRESS PERIOD     12
 UBDSV06 SAVING              RCH IN MODEL TEST_TRANS       PACKAGE TEST_TRANS      CONNECTED TO MODEL TEST_TRANS       PACKAGE RCHA             ON UNIT   1016 AT TIME STEP      8, STRESS PERIOD     12
 UBDSV06 SAVING              CHD IN MODEL TEST_TRANS       PACKAGE TEST_TRANS      CONNECTED TO MODEL TEST_TRANS       PACKAGE CHD              ON UNIT   1016 AT TIME STEP      8, STRESS PERIOD     12

 HEAD WILL BE SAVED ON UNIT 1017 AT END OF TIME STEP    8, STRESS PERIOD   12
 UBDSV1 SAVING           STO-SS ON UNIT   1016 AT TIME STEP      9, STRESS PERIOD     12
 UBDSV1 SAVING           STO-SY ON UNIT   1016 AT TIME STEP      9, STRESS PERIOD     12
 UBDSV1 SAVING     FLOW-JA-FACE ON UNIT   1016 AT TIME STEP      9, STRESS PERIOD     12
 UBDSV06 SAVING              RCH IN MODEL TEST_TRANS       PACKAGE TEST_TRANS      CONNECTED TO MODEL TEST_TRANS       PACKAGE RCHA             ON UNIT   1016 AT TIME STEP      9, STRESS PERIOD     12
 UBDSV06 SAVING              CHD IN MODEL TEST_TRANS       PACKAGE TEST_TRANS      CONNECTED TO MODEL TEST_TRANS       PACKAGE CHD              ON UNIT   1016 AT TIME STEP      9, STRESS PERIOD     12

 HEAD WILL BE SAVED ON UNIT 1017 AT END OF TIME STEP    9, STRESS PERIOD   12
 UBDSV1 SAVING           STO-SS ON UNIT   1016 AT TIME STEP     10, STRESS PERIOD     12
 UBDSV1 SAVING           STO-SY ON UNIT   1016 AT TIME STEP     10, STRESS PERIOD     12
 UBDSV1 SAVING     FLOW-JA-FACE ON UNIT   1016 AT TIME STEP     10, STRESS PERIOD     12
 UBDSV06 SAVING              RCH IN MODEL TEST_TRANS       PACKAGE TEST_TRANS      CONNECTED TO MODEL TEST_TRANS       PACKAGE RCHA             ON UNIT   1016 AT TIME STEP     10, STRESS PERIOD     12
 UBDSV06 SAVING              CHD IN MODEL TEST_TRANS       PACKAGE TEST_TRANS      CONNECTED TO MODEL TEST_TRANS       PACKAGE CHD              ON UNIT   1016 AT TIME STEP     10, STRESS PERIOD     12
1
  HEAD IN LAYER   1 AT END OF TIME STEP  10 IN STRESS PERIOD   12
  ---------------------------------------------------------------------------

            1           2           3           4           5           6           7           8           9          10
           11          12          13          14          15          16          17          18          19          20
           21          22          23          24          25          26          27          28          29          30
 ........................................................................................................................
   1    28.02       28.02       28.01       27.99       27.97       27.95       27.91       27.88       27.83       27.79    
        27.73       27.67       27.60       27.53       27.45       27.36       27.26       27.15       27.04       26.91    
        26.77       26.62       26.45       26.26       26.05       25.82       25.55       25.24       24.86       24.34    
   2    28.02       28.02       28.01       27.99       27.97       27.95       27.91       27.88       27.83       27.79    
        27.73       27.67       27.60       27.53       27.45       27.36       27.26       27.15       27.04       26.91    
        26.77       26.62       26.45       26.26       26.05       25.82       25.55       25.24       24.86       24.34    
   3    28.02       28.02       28.01       27.99       27.97       27.95       27.91       27.88       27.83       27.79    
        27.73       27.67       27.60       27.53       27.45       27.36       27.26       27.15       27.04       26.91    
        26.77       26.62       26.45       26.26       26.05       25.82       25.55       25.24       24.86       24.34    
   4    28.02       28.02       28.01       27.99       27.97       27.95       27.91       27.88       27.83       27.79    
        27.73       27.67       27.60       27.53       27.45       27.36       27.26       27.15       27.04       26.91    
        26.77       26.62       26.45       26.26       26.05       25.82       25.55       25.24       24.86       24.34    
   5    28.02       28.02       28.01       27.99       27.97       27.95       27.91       27.88       27.83       27.79    
        27.73       27.67       27.60       27.53       27.45       27.36       27.26       27.15       27.04       26.91    
        26.77       26.62       26.45       26.26       26.05       25.82       25.55       25.24       24.86       24.34    
   6    28.02       28.02       28.01       27.99       27.97       27.95       27.91       27.88       27.83       27.79    
        27.73       27.67       27.60       27.53       27.45       27.36       27.26       27.15       27.04       26.91    
        26.77       26.62       26.45       26.26       26.05       25.82       25.55       25.24       24.86       24.34    
   7    28.02       28.02       28.01       27.99       27.97       27.95       27.91       27.88       27.83       27.79    
        27.73       27.67       27.60       27.53       27.45       27.36       27.26       27.15       27.04       26.91    
        26.77       26.62       26.45       26.26       26.05       25.82       25.55       25.24       24.86       24.34    
   8    28.02       28.02       28.01       27.99       27.97       27.95       27.91       27.88       27.83       27.79    
        27.73       27.67       27.60       27.53       27.45       27.36       27.26       27.15       27.04       26.91    
        26.77       26.62       26.45       26.26       26.05       25.82       25.55       25.24       24.86       24.34    
   9    28.02       28.02       28.01       27.99       27.97       27.95       27.91       27.88       27.83       27.79    
        27.73       27.67       27.60       27.53       27.45       27.36       27.26       27.15       27.04       26.91    
        26.77       26.62       26.45       26.26       26.05       25.82       25.55       25.24       24.86       24.34    
  10    28.02       28.02       28.01       27.99       27.97       27.95       27.91       27.88       27.83       27.79    
        27.73       27.67       27.60       27.53       27.45       27.36       27.26       27.15       27.04       26.91    
        26.77       26.62       26.45       26.26       26.05       25.82       25.55       25.24       24.86       24.34    
  11    28.02       28.02       28.01       27.99       27.97       27.95       27.91       27.88       27.83       27.79    
        27.73       27.67       27.60       27.53       27.45       27.36       27.26       27.15       27.04       26.91    
        26.77       26.62       26.45       26.26       26.05       25.82       25.55       25.24       24.86       24.34    
  12    28.02       28.02       28.01       27.99       27.97       27.95       27.91       27.88       27.83       27.79    
        27.73       27.67       27.60       27.53       27.45       27.36       27.26       27.15       27.04       26.91    
        26.77       26.62       26.45       26.26       26.05       25.82       25.55       25.24       24.86       24.34    
  13    28.02       28.02       28.01       27.99       27.97       27.95       27.91       27.88       27.83       27.79    
        27.73       27.67       27.60       27.53       27.45       27.36       27.26       27.15       27.04       26.91    
        26.77       26.62       26.45       26.26       26.05       25.82       25.55       25.24       24.86       24.34    
  14    28.02       28.02       28.01       27.99       27.97       27.95       27.91       27.88       27.83       27.79    
        27.73       27.67       27.60       27.53       27.45       27.36       27.26       27.15       27.04       26.91    
        26.77       26.62       26.45       26.26       26.05       25.82       25.55       25.24       24.86       24.34    
  15    28.02       28.02       28.01       27.99       27.97       27.95       27.91       27.88       27.83       27.79    
        27.73       27.67       27.60       27.53       27.45       27.36       27.26       27.15       27.04       26.91    
        26.77       26.62       26.45       26.26       26.05       25.82       25.55       25.24       24.86       24.34    
  16    28.02       28.02       28.01       27.99       27.97       27.95       27.91       27.88       27.83       27.79    
        27.73       27.67       27.60       27.53       27.45       27.36       27.26       27.15       27.04       26.91    
        26.77       26.62       26.45       26.26       26.05       25.82       25.55       25.24       24.86       24.34    
  17    28.02       28.02       28.01       27.99       27.97       27.95       27.91       27.88       27.83       27.79    
        27.73       27.67       27.60       27.53       27.45       27.36       27.26       27.15       27.04       26.91    
        26.77       26.62       26.45       26.26       26.05       25.82       25.55       25.24       24.86       24.34    
  18    28.02       28.02       28.01       27.99       27.97       27.95       27.91       27.88       27.83       27.79    
        27.73       27.67       27.60       27.53       27.45       27.36       27.26       27.15       27.04       26.91    
        26.77       26.62       26.45       26.26       26.05       25.82       25.55       25.24       24.86       24.34    
  19    28.02       28.02       28.01       27.99       27.97       27.95       27.91       27.88       27.83       27.79    
        27.73       27.67       27.60       27.53       27.45       27.36       27.26       27.15       27.04       26.91    
        26.77       26.62       26.45       26.26       26.05       25.82       25.55       25.24       24.86       24.34    
  20    28.02       28.02       28.01       27.99       27.97       27.95       27.91       27.88       27.83       27.79    
        27.73       27.67       27.60       27.53       27.45       27.36       27.26       27.15       27.04       26.91    
        26.77       26.62       26.45       26.26       26.05       25.82       25.55       25.24       24.86       24.34    
  21    28.02       28.02       28.01       27.99       27.97       27.95       27.91       27.88       27.83       27.79    
        27.73       27.67       27.60       27.53       27.45       27.36       27.26       27.15       27.04       26.91    
        26.77       26.62       26.45       26.26       26.05       25.82       25.55       25.24       24.86       24.34    
  22    28.02       28.02       28.01       27.99       27.97       27.95       27.91       27.88       27.83       27.79    
        27.73       27.67       27.60       27.53       27.45       27.36       27.26       27.15       27.04       26.91    
        26.77       26.62       26.45       26.26       26.05       25.82       25.55       25.24       24.86       24.34    
  23    28.02       28.02       28.01       27.99       27.97       27.95       27.91       27.88       27.83       27.79    
        27.73       27.67       27.60       27.53       27.45       27.36       27.26       27.15       27.04       26.91    
        26.77       26.62       26.45       26.26       26.05       25.82       25.55       25.24       24.86       24.34    
  24    28.02       28.02       28.01       27.99       27.97       27.95       27.91       27.88       27.83       27.79    
        27.73       27.67       27.60       27.53       27.45       27.36       27.26       27.15       27.04       26.91    
        26.77       26.62       26.45       26.26       26.05       25.82       25.55       25.24       24.86       24.34    
  25    28.02       28.02       28.01       27.99       27.97       27.95       27.91       27.88       27.83       27.79    
        27.73       27.67       27.60       27.53       27.45       27.36       27.26       27.15       27.04       26.91    
        26.77       26.62       26.45       26.26       26.05       25.82       25.55       25.24       24.86       24.34    
  26    28.02       28.02       28.01       27.99       27.97       27.95       27.91       27.88       27.83       27.79    
        27.73       27.67       27.60       27.53       27.45       27.36       27.26       27.15       27.04       26.91    
        26.77       26.62       26.45       26.26       26.05       25.82       25.55       25.24       24.86       24.34    
  27    28.02       28.02       28.01       27.99       27.97       27.95       27.91       27.88       27.83       27.79    
        27.73       27.67       27.60       27.53       27.45       27.36       27.26       27.15       27.04       26.91    
        26.77       26.62       26.45       26.26       26.05       25.82       25.55       25.24       24.86       24.34    
  28    28.02       28.02       28.01       27.99       27.97       27.95       27.91       27.88       27.83       27.79    
        27.73       27.67       27.60       27.53       27.45       27.36       27.26       27.15       27.04       26.91    
        26.77       26.62       26.45       26.26       26.05       25.82       25.55       25.24       24.86       24.34    
  29    28.02       28.02       28.01       27.99       27.97       27.95       27.91       27.88       27.83       27.79    
        27.73       27.67       27.60       27.53       27.45       27.36       27.26       27.15       27.04       26.91    
        26.77       26.62       26.45       26.26       26.05       25.82       25.55       25.24       24.86       24.34    
  30    28.02       28.02       28.01       27.99       27.97       27.95       27.91       27.88       27.83       27.79    
        27.73       27.67       27.60       27.53       27.45       27.36       27.26       27.15       27.04       26.91    
        26.77       26.62       26.45       26.26       26.05       25.82       25.55       25.24       24.86       24.34    

 HEAD WILL BE SAVED ON UNIT 1017 AT END OF TIME STEP   10, STRESS PERIOD   12


  VOLUME BUDGET FOR ENTIRE MODEL AT END OF TIME STEP   10, STRESS PERIOD  12
  ---------------------------------------------------------------------------------------------------

     CUMULATIVE VOLUME      L**3       RATES FOR THIS TIME STEP      L**3/T          PACKAGE NAME    
     ------------------                 ------------------------                     ----------------

           IN:                                      IN:
           ---                                      ---
              STO-SS =          23.4287                STO-SS =           0.0000     STORAGE         
              STO-SY =       14710.6766                STO-SY =           0.0000     STORAGE         
                 RCH =       52795.9083                   RCH =         238.3565     RCHA            
                 CHD =           0.0000                   CHD =           0.0000     CHD             

            TOTAL IN =       67530.0135              TOTAL IN =         238.3565

          OUT:                                     OUT:
          ----                                     ----
              STO-SS =           6.9618                STO-SS =       4.5888E-02     STORAGE         
              STO-SY =        4386.8979                STO-SY =          28.5691     STORAGE         
                 RCH =           0.0000                   RCH =           0.0000     RCHA            
                 CHD =       63135.3474                   CHD =         209.7646     CHD             

           TOTAL OUT =       67529.2071             TOTAL OUT =         238.3796

            IN - OUT =           0.8064              IN - OUT =      -2.3107E-02

 PERCENT DISCREPANCY =           0.00     PERCENT DISCREPANCY =          -0.01




         TIME SUMMARY AT END OF TIME STEP   10 IN STRESS PERIOD   12
                    SECONDS     MINUTES      HOURS       DAYS        YEARS
                    -----------------------------------------------------------
   TIME STEP LENGTH 2.59200E+05  4320.0      72.000      3.0000     8.21355E-03
 STRESS PERIOD TIME 2.59200E+06  43200.      720.00      30.000     8.21355E-02
         TOTAL TIME 2.85984E+07 4.76640E+05  7944.0      331.00     0.90623    

 OUTPUT CONTROL FOR STRESS PERIOD 13 IS REPEATED USING SETTINGS FROM A PREVIOUS STRESS PERIOD.


 STRESS PERIOD 13 IS TRANSIENT


                 RECHARGE =  0.2739730E-02
 UBDSV1 SAVING           STO-SS ON UNIT   1016 AT TIME STEP      1, STRESS PERIOD     13
 UBDSV1 SAVING           STO-SY ON UNIT   1016 AT TIME STEP      1, STRESS PERIOD     13
 UBDSV1 SAVING     FLOW-JA-FACE ON UNIT   1016 AT TIME STEP      1, STRESS PERIOD     13
 UBDSV06 SAVING              RCH IN MODEL TEST_TRANS       PACKAGE TEST_TRANS      CONNECTED TO MODEL TEST_TRANS       PACKAGE RCHA             ON UNIT   1016 AT TIME STEP      1, STRESS PERIOD     13
 UBDSV06 SAVING              CHD IN MODEL TEST_TRANS       PACKAGE TEST_TRANS      CONNECTED TO MODEL TEST_TRANS       PACKAGE CHD              ON UNIT   1016 AT TIME STEP      1, STRESS PERIOD     13
1
  HEAD IN LAYER   1 AT END OF TIME STEP   1 IN STRESS PERIOD   13
  ---------------------------------------------------------------------------

            1           2           3           4           5           6           7           8           9          10
           11          12          13          14          15          16          17          18          19          20
           21          22          23          24          25          26          27          28          29          30
 ........................................................................................................................
   1    28.03       28.02       28.01       28.00       27.98       27.95       27.92       27.88       27.84       27.79    
        27.74       27.68       27.61       27.54       27.45       27.36       27.27       27.16       27.04       26.92    
        26.78       26.63       26.46       26.28       26.08       25.87       25.65       25.42       25.21       25.10    
   2    28.03       28.02       28.01       28.00       27.98       27.95       27.92       27.88       27.84       27.79    
        27.74       27.68       27.61       27.54       27.45       27.36       27.27       27.16       27.04       26.92    
        26.78       26.63       26.46       26.28       26.08       25.87       25.65       25.42       25.21       25.10    
   3    28.03       28.02       28.01       28.00       27.98       27.95       27.92       27.88       27.84       27.79    
        27.74       27.68       27.61       27.54       27.45       27.36       27.27       27.16       27.04       26.92    
        26.78       26.63       26.46       26.28       26.08       25.87       25.65       25.42       25.21       25.10    
   4    28.03       28.02       28.01       28.00       27.98       27.95       27.92       27.88       27.84       27.79    
        27.74       27.68       27.61       27.54       27.45       27.36       27.27       27.16       27.04       26.92    
        26.78       26.63       26.46       26.28       26.08       25.87       25.65       25.42       25.21       25.10    
   5    28.03       28.02       28.01       28.00       27.98       27.95       27.92       27.88       27.84       27.79    
        27.74       27.68       27.61       27.54       27.45       27.36       27.27       27.16       27.04       26.92    
        26.78       26.63       26.46       26.28       26.08       25.87       25.65       25.42       25.21       25.10    
   6    28.03       28.02       28.01       28.00       27.98       27.95       27.92       27.88       27.84       27.79    
        27.74       27.68       27.61       27.54       27.45       27.36       27.27       27.16       27.04       26.92    
        26.78       26.63       26.46       26.28       26.08       25.87       25.65       25.42       25.21       25.10    
   7    28.03       28.02       28.01       28.00       27.98       27.95       27.92       27.88       27.84       27.79    
        27.74       27.68       27.61       27.54       27.45       27.36       27.27       27.16       27.04       26.92    
        26.78       26.63       26.46       26.28       26.08       25.87       25.65       25.42       25.21       25.10    
   8    28.03       28.02       28.01       28.00       27.98       27.95       27.92       27.88       27.84       27.79    
        27.74       27.68       27.61       27.54       27.45       27.36       27.27       27.16       27.04       26.92    
        26.78       26.63       26.46       26.28       26.08       25.87       25.65       25.42       25.21       25.10    
   9    28.03       28.02       28.01       28.00       27.98       27.95       27.92       27.88       27.84       27.79    
        27.74       27.68       27.61       27.54       27.45       27.36       27.27       27.16       27.04       26.92    
        26.78       26.63       26.46       26.28       26.08       25.87       25.65       25.42       25.21       25.10    
  10    28.03       28.02       28.01       28.00       27.98       27.95       27.92       27.88       27.84       27.79    
        27.74       27.68       27.61       27.54       27.45       27.36       27.27       27.16       27.04       26.92    
        26.78       26.63       26.46       26.28       26.08       25.87       25.65       25.42       25.21       25.10    
  11    28.03       28.02       28.01       28.00       27.98       27.95       27.92       27.88       27.84       27.79    
        27.74       27.68       27.61       27.54       27.45       27.36       27.27       27.16       27.04       26.92    
        26.78       26.63       26.46       26.28       26.08       25.87       25.65       25.42       25.21       25.10    
  12    28.03       28.02       28.01       28.00       27.98       27.95       27.92       27.88       27.84       27.79    
        27.74       27.68       27.61       27.54       27.45       27.36       27.27       27.16       27.04       26.92    
        26.78       26.63       26.46       26.28       26.08       25.87       25.65       25.42       25.21       25.10    
  13    28.03       28.02       28.01       28.00       27.98       27.95       27.92       27.88       27.84       27.79    
        27.74       27.68       27.61       27.54       27.45       27.36       27.27       27.16       27.04       26.92    
        26.78       26.63       26.46       26.28       26.08       25.87       25.65       25.42       25.21       25.10    
  14    28.03       28.02       28.01       28.00       27.98       27.95       27.92       27.88       27.84       27.79    
        27.74       27.68       27.61       27.54       27.45       27.36       27.27       27.16       27.04       26.92    
        26.78       26.63       26.46       26.28       26.08       25.87       25.65       25.42       25.21       25.10    
  15    28.03       28.02       28.01       28.00       27.98       27.95       27.92       27.88       27.84       27.79    
        27.74       27.68       27.61       27.54       27.45       27.36       27.27       27.16       27.04       26.92    
        26.78       26.63       26.46       26.28       26.08       25.87       25.65       25.42       25.21       25.10    
  16    28.03       28.02       28.01       28.00       27.98       27.95       27.92       27.88       27.84       27.79    
        27.74       27.68       27.61       27.54       27.45       27.36       27.27       27.16       27.04       26.92    
        26.78       26.63       26.46       26.28       26.08       25.87       25.65       25.42       25.21       25.10    
  17    28.03       28.02       28.01       28.00       27.98       27.95       27.92       27.88       27.84       27.79    
        27.74       27.68       27.61       27.54       27.45       27.36       27.27       27.16       27.04       26.92    
        26.78       26.63       26.46       26.28       26.08       25.87       25.65       25.42       25.21       25.10    
  18    28.03       28.02       28.01       28.00       27.98       27.95       27.92       27.88       27.84       27.79    
        27.74       27.68       27.61       27.54       27.45       27.36       27.27       27.16       27.04       26.92    
        26.78       26.63       26.46       26.28       26.08       25.87       25.65       25.42       25.21       25.10    
  19    28.03       28.02       28.01       28.00       27.98       27.95       27.92       27.88       27.84       27.79    
        27.74       27.68       27.61       27.54       27.45       27.36       27.27       27.16       27.04       26.92    
        26.78       26.63       26.46       26.28       26.08       25.87       25.65       25.42       25.21       25.10    
  20    28.03       28.02       28.01       28.00       27.98       27.95       27.92       27.88       27.84       27.79    
        27.74       27.68       27.61       27.54       27.45       27.36       27.27       27.16       27.04       26.92    
        26.78       26.63       26.46       26.28       26.08       25.87       25.65       25.42       25.21       25.10    
  21    28.03       28.02       28.01       28.00       27.98       27.95       27.92       27.88       27.84       27.79    
        27.74       27.68       27.61       27.54       27.45       27.36       27.27       27.16       27.04       26.92    
        26.78       26.63       26.46       26.28       26.08       25.87       25.65       25.42       25.21       25.10    
  22    28.03       28.02       28.01       28.00       27.98       27.95       27.92       27.88       27.84       27.79    
        27.74       27.68       27.61       27.54       27.45       27.36       27.27       27.16       27.04       26.92    
        26.78       26.63       26.46       26.28       26.08       25.87       25.65       25.42       25.21       25.10    
  23    28.03       28.02       28.01       28.00       27.98       27.95       27.92       27.88       27.84       27.79    
        27.74       27.68       27.61       27.54       27.45       27.36       27.27       27.16       27.04       26.92    
        26.78       26.63       26.46       26.28       26.08       25.87       25.65       25.42       25.21       25.10    
  24    28.03       28.02       28.01       28.00       27.98       27.95       27.92       27.88       27.84       27.79    
        27.74       27.68       27.61       27.54       27.45       27.36       27.27       27.16       27.04       26.92    
        26.78       26.63       26.46       26.28       26.08       25.87       25.65       25.42       25.21       25.10    
  25    28.03       28.02       28.01       28.00       27.98       27.95       27.92       27.88       27.84       27.79    
        27.74       27.68       27.61       27.54       27.45       27.36       27.27       27.16       27.04       26.92    
        26.78       26.63       26.46       26.28       26.08       25.87       25.65       25.42       25.21       25.10    
  26    28.03       28.02       28.01       28.00       27.98       27.95       27.92       27.88       27.84       27.79    
        27.74       27.68       27.61       27.54       27.45       27.36       27.27       27.16       27.04       26.92    
        26.78       26.63       26.46       26.28       26.08       25.87       25.65       25.42       25.21       25.10    
  27    28.03       28.02       28.01       28.00       27.98       27.95       27.92       27.88       27.84       27.79    
        27.74       27.68       27.61       27.54       27.45       27.36       27.27       27.16       27.04       26.92    
        26.78       26.63       26.46       26.28       26.08       25.87       25.65       25.42       25.21       25.10    
  28    28.03       28.02       28.01       28.00       27.98       27.95       27.92       27.88       27.84       27.79    
        27.74       27.68       27.61       27.54       27.45       27.36       27.27       27.16       27.04       26.92    
        26.78       26.63       26.46       26.28       26.08       25.87       25.65       25.42       25.21       25.10    
  29    28.03       28.02       28.01       28.00       27.98       27.95       27.92       27.88       27.84       27.79    
        27.74       27.68       27.61       27.54       27.45       27.36       27.27       27.16       27.04       26.92    
        26.78       26.63       26.46       26.28       26.08       25.87       25.65       25.42       25.21       25.10    
  30    28.03       28.02       28.01       28.00       27.98       27.95       27.92       27.88       27.84       27.79    
        27.74       27.68       27.61       27.54       27.45       27.36       27.27       27.16       27.04       26.92    
        26.78       26.63       26.46       26.28       26.08       25.87       25.65       25.42       25.21       25.10    

 HEAD WILL BE SAVED ON UNIT 1017 AT END OF TIME STEP    1, STRESS PERIOD   13



         TIME SUMMARY AT END OF TIME STEP    1 IN STRESS PERIOD   13
                    SECONDS     MINUTES      HOURS       DAYS        YEARS
                    -----------------------------------------------------------
   TIME STEP LENGTH 2.59200E+05  4320.0      72.000      3.0000     8.21355E-03
 STRESS PERIOD TIME 2.59200E+05  4320.0      72.000      3.0000     8.21355E-03
         TOTAL TIME 2.88576E+07 4.80960E+05  8016.0      334.00     0.91444    
 UBDSV1 SAVING           STO-SS ON UNIT   1016 AT TIME STEP      2, STRESS PERIOD     13
 UBDSV1 SAVING           STO-SY ON UNIT   1016 AT TIME STEP      2, STRESS PERIOD     13
 UBDSV1 SAVING     FLOW-JA-FACE ON UNIT   1016 AT TIME STEP      2, STRESS PERIOD     13
 UBDSV06 SAVING              RCH IN MODEL TEST_TRANS       PACKAGE TEST_TRANS      CONNECTED TO MODEL TEST_TRANS       PACKAGE RCHA             ON UNIT   1016 AT TIME STEP      2, STRESS PERIOD     13
 UBDSV06 SAVING              CHD IN MODEL TEST_TRANS       PACKAGE TEST_TRANS      CONNECTED TO MODEL TEST_TRANS       PACKAGE CHD              ON UNIT   1016 AT TIME STEP      2, STRESS PERIOD     13

 HEAD WILL BE SAVED ON UNIT 1017 AT END OF TIME STEP    2, STRESS PERIOD   13
 UBDSV1 SAVING           STO-SS ON UNIT   1016 AT TIME STEP      3, STRESS PERIOD     13
 UBDSV1 SAVING           STO-SY ON UNIT   1016 AT TIME STEP      3, STRESS PERIOD     13
 UBDSV1 SAVING     FLOW-JA-FACE ON UNIT   1016 AT TIME STEP      3, STRESS PERIOD     13
 UBDSV06 SAVING              RCH IN MODEL TEST_TRANS       PACKAGE TEST_TRANS      CONNECTED TO MODEL TEST_TRANS       PACKAGE RCHA             ON UNIT   1016 AT TIME STEP      3, STRESS PERIOD     13
 UBDSV06 SAVING              CHD IN MODEL TEST_TRANS       PACKAGE TEST_TRANS      CONNECTED TO MODEL TEST_TRANS       PACKAGE CHD              ON UNIT   1016 AT TIME STEP      3, STRESS PERIOD     13

 HEAD WILL BE SAVED ON UNIT 1017 AT END OF TIME STEP    3, STRESS PERIOD   13
 UBDSV1 SAVING           STO-SS ON UNIT   1016 AT TIME STEP      4, STRESS PERIOD     13
 UBDSV1 SAVING           STO-SY ON UNIT   1016 AT TIME STEP      4, STRESS PERIOD     13
 UBDSV1 SAVING     FLOW-JA-FACE ON UNIT   1016 AT TIME STEP      4, STRESS PERIOD     13
 UBDSV06 SAVING              RCH IN MODEL TEST_TRANS       PACKAGE TEST_TRANS      CONNECTED TO MODEL TEST_TRANS       PACKAGE RCHA             ON UNIT   1016 AT TIME STEP      4, STRESS PERIOD     13
 UBDSV06 SAVING              CHD IN MODEL TEST_TRANS       PACKAGE TEST_TRANS      CONNECTED TO MODEL TEST_TRANS       PACKAGE CHD              ON UNIT   1016 AT TIME STEP      4, STRESS PERIOD     13

 HEAD WILL BE SAVED ON UNIT 1017 AT END OF TIME STEP    4, STRESS PERIOD   13
 UBDSV1 SAVING           STO-SS ON UNIT   1016 AT TIME STEP      5, STRESS PERIOD     13
 UBDSV1 SAVING           STO-SY ON UNIT   1016 AT TIME STEP      5, STRESS PERIOD     13
 UBDSV1 SAVING     FLOW-JA-FACE ON UNIT   1016 AT TIME STEP      5, STRESS PERIOD     13
 UBDSV06 SAVING              RCH IN MODEL TEST_TRANS       PACKAGE TEST_TRANS      CONNECTED TO MODEL TEST_TRANS       PACKAGE RCHA             ON UNIT   1016 AT TIME STEP      5, STRESS PERIOD     13
 UBDSV06 SAVING              CHD IN MODEL TEST_TRANS       PACKAGE TEST_TRANS      CONNECTED TO MODEL TEST_TRANS       PACKAGE CHD              ON UNIT   1016 AT TIME STEP      5, STRESS PERIOD     13

 HEAD WILL BE SAVED ON UNIT 1017 AT END OF TIME STEP    5, STRESS PERIOD   13
 UBDSV1 SAVING           STO-SS ON UNIT   1016 AT TIME STEP      6, STRESS PERIOD     13
 UBDSV1 SAVING           STO-SY ON UNIT   1016 AT TIME STEP      6, STRESS PERIOD     13
 UBDSV1 SAVING     FLOW-JA-FACE ON UNIT   1016 AT TIME STEP      6, STRESS PERIOD     13
 UBDSV06 SAVING              RCH IN MODEL TEST_TRANS       PACKAGE TEST_TRANS      CONNECTED TO MODEL TEST_TRANS       PACKAGE RCHA             ON UNIT   1016 AT TIME STEP      6, STRESS PERIOD     13
 UBDSV06 SAVING              CHD IN MODEL TEST_TRANS       PACKAGE TEST_TRANS      CONNECTED TO MODEL TEST_TRANS       PACKAGE CHD              ON UNIT   1016 AT TIME STEP      6, STRESS PERIOD     13

 HEAD WILL BE SAVED ON UNIT 1017 AT END OF TIME STEP    6, STRESS PERIOD   13
 UBDSV1 SAVING           STO-SS ON UNIT   1016 AT TIME STEP      7, STRESS PERIOD     13
 UBDSV1 SAVING           STO-SY ON UNIT   1016 AT TIME STEP      7, STRESS PERIOD     13
 UBDSV1 SAVING     FLOW-JA-FACE ON UNIT   1016 AT TIME STEP      7, STRESS PERIOD     13
 UBDSV06 SAVING              RCH IN MODEL TEST_TRANS       PACKAGE TEST_TRANS      CONNECTED TO MODEL TEST_TRANS       PACKAGE RCHA             ON UNIT   1016 AT TIME STEP      7, STRESS PERIOD     13
 UBDSV06 SAVING              CHD IN MODEL TEST_TRANS       PACKAGE TEST_TRANS      CONNECTED TO MODEL TEST_TRANS       PACKAGE CHD              ON UNIT   1016 AT TIME STEP      7, STRESS PERIOD     13

 HEAD WILL BE SAVED ON UNIT 1017 AT END OF TIME STEP    7, STRESS PERIOD   13
 UBDSV1 SAVING           STO-SS ON UNIT   1016 AT TIME STEP      8, STRESS PERIOD     13
 UBDSV1 SAVING           STO-SY ON UNIT   1016 AT TIME STEP      8, STRESS PERIOD     13
 UBDSV1 SAVING     FLOW-JA-FACE ON UNIT   1016 AT TIME STEP      8, STRESS PERIOD     13
 UBDSV06 SAVING              RCH IN MODEL TEST_TRANS       PACKAGE TEST_TRANS      CONNECTED TO MODEL TEST_TRANS       PACKAGE RCHA             ON UNIT   1016 AT TIME STEP      8, STRESS PERIOD     13
 UBDSV06 SAVING              CHD IN MODEL TEST_TRANS       PACKAGE TEST_TRANS      CONNECTED TO MODEL TEST_TRANS       PACKAGE CHD              ON UNIT   1016 AT TIME STEP      8, STRESS PERIOD     13

 HEAD WILL BE SAVED ON UNIT 1017 AT END OF TIME STEP    8, STRESS PERIOD   13
 UBDSV1 SAVING           STO-SS ON UNIT   1016 AT TIME STEP      9, STRESS PERIOD     13
 UBDSV1 SAVING           STO-SY ON UNIT   1016 AT TIME STEP      9, STRESS PERIOD     13
 UBDSV1 SAVING     FLOW-JA-FACE ON UNIT   1016 AT TIME STEP      9, STRESS PERIOD     13
 UBDSV06 SAVING              RCH IN MODEL TEST_TRANS       PACKAGE TEST_TRANS      CONNECTED TO MODEL TEST_TRANS       PACKAGE RCHA             ON UNIT   1016 AT TIME STEP      9, STRESS PERIOD     13
 UBDSV06 SAVING              CHD IN MODEL TEST_TRANS       PACKAGE TEST_TRANS      CONNECTED TO MODEL TEST_TRANS       PACKAGE CHD              ON UNIT   1016 AT TIME STEP      9, STRESS PERIOD     13

 HEAD WILL BE SAVED ON UNIT 1017 AT END OF TIME STEP    9, STRESS PERIOD   13
 UBDSV1 SAVING           STO-SS ON UNIT   1016 AT TIME STEP     10, STRESS PERIOD     13
 UBDSV1 SAVING           STO-SY ON UNIT   1016 AT TIME STEP     10, STRESS PERIOD     13
 UBDSV1 SAVING     FLOW-JA-FACE ON UNIT   1016 AT TIME STEP     10, STRESS PERIOD     13
 UBDSV06 SAVING              RCH IN MODEL TEST_TRANS       PACKAGE TEST_TRANS      CONNECTED TO MODEL TEST_TRANS       PACKAGE RCHA             ON UNIT   1016 AT TIME STEP     10, STRESS PERIOD     13
 UBDSV06 SAVING              CHD IN MODEL TEST_TRANS       PACKAGE TEST_TRANS      CONNECTED TO MODEL TEST_TRANS       PACKAGE CHD              ON UNIT   1016 AT TIME STEP     10, STRESS PERIOD     13
1
  HEAD IN LAYER   1 AT END OF TIME STEP  10 IN STRESS PERIOD   13
  ---------------------------------------------------------------------------

            1           2           3           4           5           6           7           8           9          10
           11          12          13          14          15          16          17          18          19          20
           21          22          23          24          25          26          27          28          29          30
 ........................................................................................................................
   1    28.10       28.09       28.08       28.06       28.04       28.02       27.99       27.95       27.91       27.86    
        27.81       27.75       27.68       27.61       27.53       27.45       27.36       27.26       27.15       27.04    
        26.91       26.78       26.63       26.48       26.31       26.12       25.91       25.68       25.41       25.10    
   2    28.10       28.09       28.08       28.06       28.04       28.02       27.99       27.95       27.91       27.86    
        27.81       27.75       27.68       27.61       27.53       27.45       27.36       27.26       27.15       27.04    
        26.91       26.78       26.63       26.48       26.31       26.12       25.91       25.68       25.41       25.10    
   3    28.10       28.09       28.08       28.06       28.04       28.02       27.99       27.95       27.91       27.86    
        27.81       27.75       27.68       27.61       27.53       27.45       27.36       27.26       27.15       27.04    
        26.91       26.78       26.63       26.48       26.31       26.12       25.91       25.68       25.41       25.10    
   4    28.10       28.09       28.08       28.06       28.04       28.02       27.99       27.95       27.91       27.86    
        27.81       27.75       27.68       27.61       27.53       27.45       27.36       27.26       27.15       27.04    
        26.91       26.78       26.63       26.48       26.31       26.12       25.91       25.68       25.41       25.10    
   5    28.10       28.09       28.08       28.06       28.04       28.02       27.99       27.95       27.91       27.86    
        27.81       27.75       27.68       27.61       27.53       27.45       27.36       27.26       27.15       27.04    
        26.91       26.78       26.63       26.48       26.31       26.12       25.91       25.68       25.41       25.10    
   6    28.10       28.09       28.08       28.06       28.04       28.02       27.99       27.95       27.91       27.86    
        27.81       27.75       27.68       27.61       27.53       27.45       27.36       27.26       27.15       27.04    
        26.91       26.78       26.63       26.48       26.31       26.12       25.91       25.68       25.41       25.10    
   7    28.10       28.09       28.08       28.06       28.04       28.02       27.99       27.95       27.91       27.86    
        27.81       27.75       27.68       27.61       27.53       27.45       27.36       27.26       27.15       27.04    
        26.91       26.78       26.63       26.48       26.31       26.12       25.91       25.68       25.41       25.10    
   8    28.10       28.09       28.08       28.06       28.04       28.02       27.99       27.95       27.91       27.86    
        27.81       27.75       27.68       27.61       27.53       27.45       27.36       27.26       27.15       27.04    
        26.91       26.78       26.63       26.48       26.31       26.12       25.91       25.68       25.41       25.10    
   9    28.10       28.09       28.08       28.06       28.04       28.02       27.99       27.95       27.91       27.86    
        27.81       27.75       27.68       27.61       27.53       27.45       27.36       27.26       27.15       27.04    
        26.91       26.78       26.63       26.48       26.31       26.12       25.91       25.68       25.41       25.10    
  10    28.10       28.09       28.08       28.06       28.04       28.02       27.99       27.95       27.91       27.86    
        27.81       27.75       27.68       27.61       27.53       27.45       27.36       27.26       27.15       27.04    
        26.91       26.78       26.63       26.48       26.31       26.12       25.91       25.68       25.41       25.10    
  11    28.10       28.09       28.08       28.06       28.04       28.02       27.99       27.95       27.91       27.86    
        27.81       27.75       27.68       27.61       27.53       27.45       27.36       27.26       27.15       27.04    
        26.91       26.78       26.63       26.48       26.31       26.12       25.91       25.68       25.41       25.10    
  12    28.10       28.09       28.08       28.06       28.04       28.02       27.99       27.95       27.91       27.86    
        27.81       27.75       27.68       27.61       27.53       27.45       27.36       27.26       27.15       27.04    
        26.91       26.78       26.63       26.48       26.31       26.12       25.91       25.68       25.41       25.10    
  13    28.10       28.09       28.08       28.06       28.04       28.02       27.99       27.95       27.91       27.86    
        27.81       27.75       27.68       27.61       27.53       27.45       27.36       27.26       27.15       27.04    
        26.91       26.78       26.63       26.48       26.31       26.12       25.91       25.68       25.41       25.10    
  14    28.10       28.09       28.08       28.06       28.04       28.02       27.99       27.95       27.91       27.86    
        27.81       27.75       27.68       27.61       27.53       27.45       27.36       27.26       27.15       27.04    
        26.91       26.78       26.63       26.48       26.31       26.12       25.91       25.68       25.41       25.10    
  15    28.10       28.09       28.08       28.06       28.04       28.02       27.99       27.95       27.91       27.86    
        27.81       27.75       27.68       27.61       27.53       27.45       27.36       27.26       27.15       27.04    
        26.91       26.78       26.63       26.48       26.31       26.12       25.91       25.68       25.41       25.10    
  16    28.10       28.09       28.08       28.06       28.04       28.02       27.99       27.95       27.91       27.86    
        27.81       27.75       27.68       27.61       27.53       27.45       27.36       27.26       27.15       27.04    
        26.91       26.78       26.63       26.48       26.31       26.12       25.91       25.68       25.41       25.10    
  17    28.10       28.09       28.08       28.06       28.04       28.02       27.99       27.95       27.91       27.86    
        27.81       27.75       27.68       27.61       27.53       27.45       27.36       27.26       27.15       27.04    
        26.91       26.78       26.63       26.48       26.31       26.12       25.91       25.68       25.41       25.10    
  18    28.10       28.09       28.08       28.06       28.04       28.02       27.99       27.95       27.91       27.86    
        27.81       27.75       27.68       27.61       27.53       27.45       27.36       27.26       27.15       27.04    
        26.91       26.78       26.63       26.48       26.31       26.12       25.91       25.68       25.41       25.10    
  19    28.10       28.09       28.08       28.06       28.04       28.02       27.99       27.95       27.91       27.86    
        27.81       27.75       27.68       27.61       27.53       27.45       27.36       27.26       27.15       27.04    
        26.91       26.78       26.63       26.48       26.31       26.12       25.91       25.68       25.41       25.10    
  20    28.10       28.09       28.08       28.06       28.04       28.02       27.99       27.95       27.91       27.86    
        27.81       27.75       27.68       27.61       27.53       27.45       27.36       27.26       27.15       27.04    
        26.91       26.78       26.63       26.48       26.31       26.12       25.91       25.68       25.41       25.10    
  21    28.10       28.09       28.08       28.06       28.04       28.02       27.99       27.95       27.91       27.86    
        27.81       27.75       27.68       27.61       27.53       27.45       27.36       27.26       27.15       27.04    
        26.91       26.78       26.63       26.48       26.31       26.12       25.91       25.68       25.41       25.10    
  22    28.10       28.09       28.08       28.06       28.04       28.02       27.99       27.95       27.91       27.86    
        27.81       27.75       27.68       27.61       27.53       27.45       27.36       27.26       27.15       27.04    
        26.91       26.78       26.63       26.48       26.31       26.12       25.91       25.68       25.41       25.10    
  23    28.10       28.09       28.08       28.06       28.04       28.02       27.99       27.95       27.91       27.86    
        27.81       27.75       27.68       27.61       27.53       27.45       27.36       27.26       27.15       27.04    
        26.91       26.78       26.63       26.48       26.31       26.12       25.91       25.68       25.41       25.10    
  24    28.10       28.09       28.08       28.06       28.04       28.02       27.99       27.95       27.91       27.86    
        27.81       27.75       27.68       27.61       27.53       27.45       27.36       27.26       27.15       27.04    
        26.91       26.78       26.63       26.48       26.31       26.12       25.91       25.68       25.41       25.10    
  25    28.10       28.09       28.08       28.06       28.04       28.02       27.99       27.95       27.91       27.86    
        27.81       27.75       27.68       27.61       27.53       27.45       27.36       27.26       27.15       27.04    
        26.91       26.78       26.63       26.48       26.31       26.12       25.91       25.68       25.41       25.10    
  26    28.10       28.09       28.08       28.06       28.04       28.02       27.99       27.95       27.91       27.86    
        27.81       27.75       27.68       27.61       27.53       27.45       27.36       27.26       27.15       27.04    
        26.91       26.78       26.63       26.48       26.31       26.12       25.91       25.68       25.41       25.10    
  27    28.10       28.09       28.08       28.06       28.04       28.02       27.99       27.95       27.91       27.86    
        27.81       27.75       27.68       27.61       27.53       27.45       27.36       27.26       27.15       27.04    
        26.91       26.78       26.63       26.48       26.31       26.12       25.91       25.68       25.41       25.10    
  28    28.10       28.09       28.08       28.06       28.04       28.02       27.99       27.95       27.91       27.86    
        27.81       27.75       27.68       27.61       27.53       27.45       27.36       27.26       27.15       27.04    
        26.91       26.78       26.63       26.48       26.31       26.12       25.91       25.68       25.41       25.10    
  29    28.10       28.09       28.08       28.06       28.04       28.02       27.99       27.95       27.91       27.86    
        27.81       27.75       27.68       27.61       27.53       27.45       27.36       27.26       27.15       27.04    
        26.91       26.78       26.63       26.48       26.31       26.12       25.91       25.68       25.41       25.10    
  30    28.10       28.09       28.08       28.06       28.04       28.02       27.99       27.95       27.91       27.86    
        27.81       27.75       27.68       27.61       27.53       27.45       27.36       27.26       27.15       27.04    
        26.91       26.78       26.63       26.48       26.31       26.12       25.91       25.68       25.41       25.10    

 HEAD WILL BE SAVED ON UNIT 1017 AT END OF TIME STEP   10, STRESS PERIOD   13


  VOLUME BUDGET FOR ENTIRE MODEL AT END OF TIME STEP   10, STRESS PERIOD  13
  ---------------------------------------------------------------------------------------------------

     CUMULATIVE VOLUME      L**3       RATES FOR THIS TIME STEP      L**3/T          PACKAGE NAME    
     ------------------                 ------------------------                     ----------------

           IN:                                      IN:
           ---                                      ---
              STO-SS =          23.4287                STO-SS =           0.0000     STORAGE         
              STO-SY =       14710.6766                STO-SY =           0.0000     STORAGE         
                 RCH =       59946.6036                   RCH =         238.3565     RCHA            
                 CHD =           0.0000                   CHD =           0.0000     CHD             

            TOTAL IN =       74680.7088              TOTAL IN =         238.3565

          OUT:                                     OUT:
          ----                                     ----
              STO-SS =          10.8181                STO-SS =       8.7133E-02     STORAGE         
              STO-SY =        6948.4829                STO-SY =          55.4013     STORAGE         
                 RCH =           0.0000                   RCH =           0.0000     RCHA            
                 CHD =       67720.7128                   CHD =         182.8758     CHD             

           TOTAL OUT =       74680.0139             TOTAL OUT =         238.3643

            IN - OUT =           0.6949              IN - OUT =      -7.7529E-03

 PERCENT DISCREPANCY =           0.00     PERCENT DISCREPANCY =          -0.00




         TIME SUMMARY AT END OF TIME STEP   10 IN STRESS PERIOD   13
                    SECONDS     MINUTES      HOURS       DAYS        YEARS
                    -----------------------------------------------------------
   TIME STEP LENGTH 2.59200E+05  4320.0      72.000      3.0000     8.21355E-03
 STRESS PERIOD TIME 2.59200E+06  43200.      720.00      30.000     8.21355E-02
         TOTAL TIME 3.11904E+07 5.19840E+05  8664.0      361.00     0.98836    

 OUTPUT CONTROL FOR STRESS PERIOD 14 IS REPEATED USING SETTINGS FROM A PREVIOUS STRESS PERIOD.


 STRESS PERIOD 14 IS TRANSIENT


                 RECHARGE =  0.3287670E-02
 UBDSV1 SAVING           STO-SS ON UNIT   1016 AT TIME STEP      1, STRESS PERIOD     14
 UBDSV1 SAVING           STO-SY ON UNIT   1016 AT TIME STEP      1, STRESS PERIOD     14
 UBDSV1 SAVING     FLOW-JA-FACE ON UNIT   1016 AT TIME STEP      1, STRESS PERIOD     14
 UBDSV06 SAVING              RCH IN MODEL TEST_TRANS       PACKAGE TEST_TRANS      CONNECTED TO MODEL TEST_TRANS       PACKAGE RCHA             ON UNIT   1016 AT TIME STEP      1, STRESS PERIOD     14
 UBDSV06 SAVING              CHD IN MODEL TEST_TRANS       PACKAGE TEST_TRANS      CONNECTED TO MODEL TEST_TRANS       PACKAGE CHD              ON UNIT   1016 AT TIME STEP      1, STRESS PERIOD     14
1
  HEAD IN LAYER   1 AT END OF TIME STEP   1 IN STRESS PERIOD   14
  ---------------------------------------------------------------------------

            1           2           3           4           5           6           7           8           9          10
           11          12          13          14          15          16          17          18          19          20
           21          22          23          24          25          26          27          28          29          30
 ........................................................................................................................
   1    28.11       28.11       28.10       28.08       28.06       28.03       28.00       27.97       27.92       27.88    
        27.82       27.77       27.70       27.63       27.55       27.47       27.38       27.28       27.17       27.06    
        26.93       26.80       26.65       26.50       26.33       26.14       25.93       25.70       25.43       25.12    
   2    28.11       28.11       28.10       28.08       28.06       28.03       28.00       27.97       27.92       27.88    
        27.82       27.77       27.70       27.63       27.55       27.47       27.38       27.28       27.17       27.06    
        26.93       26.80       26.65       26.50       26.33       26.14       25.93       25.70       25.43       25.12    
   3    28.11       28.11       28.10       28.08       28.06       28.03       28.00       27.97       27.92       27.88    
        27.82       27.77       27.70       27.63       27.55       27.47       27.38       27.28       27.17       27.06    
        26.93       26.80       26.65       26.50       26.33       26.14       25.93       25.70       25.43       25.12    
   4    28.11       28.11       28.10       28.08       28.06       28.03       28.00       27.97       27.92       27.88    
        27.82       27.77       27.70       27.63       27.55       27.47       27.38       27.28       27.17       27.06    
        26.93       26.80       26.65       26.50       26.33       26.14       25.93       25.70       25.43       25.12    
   5    28.11       28.11       28.10       28.08       28.06       28.03       28.00       27.97       27.92       27.88    
        27.82       27.77       27.70       27.63       27.55       27.47       27.38       27.28       27.17       27.06    
        26.93       26.80       26.65       26.50       26.33       26.14       25.93       25.70       25.43       25.12    
   6    28.11       28.11       28.10       28.08       28.06       28.03       28.00       27.97       27.92       27.88    
        27.82       27.77       27.70       27.63       27.55       27.47       27.38       27.28       27.17       27.06    
        26.93       26.80       26.65       26.50       26.33       26.14       25.93       25.70       25.43       25.12    
   7    28.11       28.11       28.10       28.08       28.06       28.03       28.00       27.97       27.92       27.88    
        27.82       27.77       27.70       27.63       27.55       27.47       27.38       27.28       27.17       27.06    
        26.93       26.80       26.65       26.50       26.33       26.14       25.93       25.70       25.43       25.12    
   8    28.11       28.11       28.10       28.08       28.06       28.03       28.00       27.97       27.92       27.88    
        27.82       27.77       27.70       27.63       27.55       27.47       27.38       27.28       27.17       27.06    
        26.93       26.80       26.65       26.50       26.33       26.14       25.93       25.70       25.43       25.12    
   9    28.11       28.11       28.10       28.08       28.06       28.03       28.00       27.97       27.92       27.88    
        27.82       27.77       27.70       27.63       27.55       27.47       27.38       27.28       27.17       27.06    
        26.93       26.80       26.65       26.50       26.33       26.14       25.93       25.70       25.43       25.12    
  10    28.11       28.11       28.10       28.08       28.06       28.03       28.00       27.97       27.92       27.88    
        27.82       27.77       27.70       27.63       27.55       27.47       27.38       27.28       27.17       27.06    
        26.93       26.80       26.65       26.50       26.33       26.14       25.93       25.70       25.43       25.12    
  11    28.11       28.11       28.10       28.08       28.06       28.03       28.00       27.97       27.92       27.88    
        27.82       27.77       27.70       27.63       27.55       27.47       27.38       27.28       27.17       27.06    
        26.93       26.80       26.65       26.50       26.33       26.14       25.93       25.70       25.43       25.12    
  12    28.11       28.11       28.10       28.08       28.06       28.03       28.00       27.97       27.92       27.88    
        27.82       27.77       27.70       27.63       27.55       27.47       27.38       27.28       27.17       27.06    
        26.93       26.80       26.65       26.50       26.33       26.14       25.93       25.70       25.43       25.12    
  13    28.11       28.11       28.10       28.08       28.06       28.03       28.00       27.97       27.92       27.88    
        27.82       27.77       27.70       27.63       27.55       27.47       27.38       27.28       27.17       27.06    
        26.93       26.80       26.65       26.50       26.33       26.14       25.93       25.70       25.43       25.12    
  14    28.11       28.11       28.10       28.08       28.06       28.03       28.00       27.97       27.92       27.88    
        27.82       27.77       27.70       27.63       27.55       27.47       27.38       27.28       27.17       27.06    
        26.93       26.80       26.65       26.50       26.33       26.14       25.93       25.70       25.43       25.12    
  15    28.11       28.11       28.10       28.08       28.06       28.03       28.00       27.97       27.92       27.88    
        27.82       27.77       27.70       27.63       27.55       27.47       27.38       27.28       27.17       27.06    
        26.93       26.80       26.65       26.50       26.33       26.14       25.93       25.70       25.43       25.12    
  16    28.11       28.11       28.10       28.08       28.06       28.03       28.00       27.97       27.92       27.88    
        27.82       27.77       27.70       27.63       27.55       27.47       27.38       27.28       27.17       27.06    
        26.93       26.80       26.65       26.50       26.33       26.14       25.93       25.70       25.43       25.12    
  17    28.11       28.11       28.10       28.08       28.06       28.03       28.00       27.97       27.92       27.88    
        27.82       27.77       27.70       27.63       27.55       27.47       27.38       27.28       27.17       27.06    
        26.93       26.80       26.65       26.50       26.33       26.14       25.93       25.70       25.43       25.12    
  18    28.11       28.11       28.10       28.08       28.06       28.03       28.00       27.97       27.92       27.88    
        27.82       27.77       27.70       27.63       27.55       27.47       27.38       27.28       27.17       27.06    
        26.93       26.80       26.65       26.50       26.33       26.14       25.93       25.70       25.43       25.12    
  19    28.11       28.11       28.10       28.08       28.06       28.03       28.00       27.97       27.92       27.88    
        27.82       27.77       27.70       27.63       27.55       27.47       27.38       27.28       27.17       27.06    
        26.93       26.80       26.65       26.50       26.33       26.14       25.93       25.70       25.43       25.12    
  20    28.11       28.11       28.10       28.08       28.06       28.03       28.00       27.97       27.92       27.88    
        27.82       27.77       27.70       27.63       27.55       27.47       27.38       27.28       27.17       27.06    
        26.93       26.80       26.65       26.50       26.33       26.14       25.93       25.70       25.43       25.12    
  21    28.11       28.11       28.10       28.08       28.06       28.03       28.00       27.97       27.92       27.88    
        27.82       27.77       27.70       27.63       27.55       27.47       27.38       27.28       27.17       27.06    
        26.93       26.80       26.65       26.50       26.33       26.14       25.93       25.70       25.43       25.12    
  22    28.11       28.11       28.10       28.08       28.06       28.03       28.00       27.97       27.92       27.88    
        27.82       27.77       27.70       27.63       27.55       27.47       27.38       27.28       27.17       27.06    
        26.93       26.80       26.65       26.50       26.33       26.14       25.93       25.70       25.43       25.12    
  23    28.11       28.11       28.10       28.08       28.06       28.03       28.00       27.97       27.92       27.88    
        27.82       27.77       27.70       27.63       27.55       27.47       27.38       27.28       27.17       27.06    
        26.93       26.80       26.65       26.50       26.33       26.14       25.93       25.70       25.43       25.12    
  24    28.11       28.11       28.10       28.08       28.06       28.03       28.00       27.97       27.92       27.88    
        27.82       27.77       27.70       27.63       27.55       27.47       27.38       27.28       27.17       27.06    
        26.93       26.80       26.65       26.50       26.33       26.14       25.93       25.70       25.43       25.12    
  25    28.11       28.11       28.10       28.08       28.06       28.03       28.00       27.97       27.92       27.88    
        27.82       27.77       27.70       27.63       27.55       27.47       27.38       27.28       27.17       27.06    
        26.93       26.80       26.65       26.50       26.33       26.14       25.93       25.70       25.43       25.12    
  26    28.11       28.11       28.10       28.08       28.06       28.03       28.00       27.97       27.92       27.88    
        27.82       27.77       27.70       27.63       27.55       27.47       27.38       27.28       27.17       27.06    
        26.93       26.80       26.65       26.50       26.33       26.14       25.93       25.70       25.43       25.12    
  27    28.11       28.11       28.10       28.08       28.06       28.03       28.00       27.97       27.92       27.88    
        27.82       27.77       27.70       27.63       27.55       27.47       27.38       27.28       27.17       27.06    
        26.93       26.80       26.65       26.50       26.33       26.14       25.93       25.70       25.43       25.12    
  28    28.11       28.11       28.10       28.08       28.06       28.03       28.00       27.97       27.92       27.88    
        27.82       27.77       27.70       27.63       27.55       27.47       27.38       27.28       27.17       27.06    
        26.93       26.80       26.65       26.50       26.33       26.14       25.93       25.70       25.43       25.12    
  29    28.11       28.11       28.10       28.08       28.06       28.03       28.00       27.97       27.92       27.88    
        27.82       27.77       27.70       27.63       27.55       27.47       27.38       27.28       27.17       27.06    
        26.93       26.80       26.65       26.50       26.33       26.14       25.93       25.70       25.43       25.12    
  30    28.11       28.11       28.10       28.08       28.06       28.03       28.00       27.97       27.92       27.88    
        27.82       27.77       27.70       27.63       27.55       27.47       27.38       27.28       27.17       27.06    
        26.93       26.80       26.65       26.50       26.33       26.14       25.93       25.70       25.43       25.12    

 HEAD WILL BE SAVED ON UNIT 1017 AT END OF TIME STEP    1, STRESS PERIOD   14



         TIME SUMMARY AT END OF TIME STEP    1 IN STRESS PERIOD   14
                    SECONDS     MINUTES      HOURS       DAYS        YEARS
                    -----------------------------------------------------------
   TIME STEP LENGTH 2.59200E+05  4320.0      72.000      3.0000     8.21355E-03
 STRESS PERIOD TIME 2.59200E+05  4320.0      72.000      3.0000     8.21355E-03
         TOTAL TIME 3.14496E+07 5.24160E+05  8736.0      364.00     0.99658    
 UBDSV1 SAVING           STO-SS ON UNIT   1016 AT TIME STEP      2, STRESS PERIOD     14
 UBDSV1 SAVING           STO-SY ON UNIT   1016 AT TIME STEP      2, STRESS PERIOD     14
 UBDSV1 SAVING     FLOW-JA-FACE ON UNIT   1016 AT TIME STEP      2, STRESS PERIOD     14
 UBDSV06 SAVING              RCH IN MODEL TEST_TRANS       PACKAGE TEST_TRANS      CONNECTED TO MODEL TEST_TRANS       PACKAGE RCHA             ON UNIT   1016 AT TIME STEP      2, STRESS PERIOD     14
 UBDSV06 SAVING              CHD IN MODEL TEST_TRANS       PACKAGE TEST_TRANS      CONNECTED TO MODEL TEST_TRANS       PACKAGE CHD              ON UNIT   1016 AT TIME STEP      2, STRESS PERIOD     14

 HEAD WILL BE SAVED ON UNIT 1017 AT END OF TIME STEP    2, STRESS PERIOD   14
 UBDSV1 SAVING           STO-SS ON UNIT   1016 AT TIME STEP      3, STRESS PERIOD     14
 UBDSV1 SAVING           STO-SY ON UNIT   1016 AT TIME STEP      3, STRESS PERIOD     14
 UBDSV1 SAVING     FLOW-JA-FACE ON UNIT   1016 AT TIME STEP      3, STRESS PERIOD     14
 UBDSV06 SAVING              RCH IN MODEL TEST_TRANS       PACKAGE TEST_TRANS      CONNECTED TO MODEL TEST_TRANS       PACKAGE RCHA             ON UNIT   1016 AT TIME STEP      3, STRESS PERIOD     14
 UBDSV06 SAVING              CHD IN MODEL TEST_TRANS       PACKAGE TEST_TRANS      CONNECTED TO MODEL TEST_TRANS       PACKAGE CHD              ON UNIT   1016 AT TIME STEP      3, STRESS PERIOD     14

 HEAD WILL BE SAVED ON UNIT 1017 AT END OF TIME STEP    3, STRESS PERIOD   14
 UBDSV1 SAVING           STO-SS ON UNIT   1016 AT TIME STEP      4, STRESS PERIOD     14
 UBDSV1 SAVING           STO-SY ON UNIT   1016 AT TIME STEP      4, STRESS PERIOD     14
 UBDSV1 SAVING     FLOW-JA-FACE ON UNIT   1016 AT TIME STEP      4, STRESS PERIOD     14
 UBDSV06 SAVING              RCH IN MODEL TEST_TRANS       PACKAGE TEST_TRANS      CONNECTED TO MODEL TEST_TRANS       PACKAGE RCHA             ON UNIT   1016 AT TIME STEP      4, STRESS PERIOD     14
 UBDSV06 SAVING              CHD IN MODEL TEST_TRANS       PACKAGE TEST_TRANS      CONNECTED TO MODEL TEST_TRANS       PACKAGE CHD              ON UNIT   1016 AT TIME STEP      4, STRESS PERIOD     14

 HEAD WILL BE SAVED ON UNIT 1017 AT END OF TIME STEP    4, STRESS PERIOD   14
 UBDSV1 SAVING           STO-SS ON UNIT   1016 AT TIME STEP      5, STRESS PERIOD     14
 UBDSV1 SAVING           STO-SY ON UNIT   1016 AT TIME STEP      5, STRESS PERIOD     14
 UBDSV1 SAVING     FLOW-JA-FACE ON UNIT   1016 AT TIME STEP      5, STRESS PERIOD     14
 UBDSV06 SAVING              RCH IN MODEL TEST_TRANS       PACKAGE TEST_TRANS      CONNECTED TO MODEL TEST_TRANS       PACKAGE RCHA             ON UNIT   1016 AT TIME STEP      5, STRESS PERIOD     14
 UBDSV06 SAVING              CHD IN MODEL TEST_TRANS       PACKAGE TEST_TRANS      CONNECTED TO MODEL TEST_TRANS       PACKAGE CHD              ON UNIT   1016 AT TIME STEP      5, STRESS PERIOD     14

 HEAD WILL BE SAVED ON UNIT 1017 AT END OF TIME STEP    5, STRESS PERIOD   14
 UBDSV1 SAVING           STO-SS ON UNIT   1016 AT TIME STEP      6, STRESS PERIOD     14
 UBDSV1 SAVING           STO-SY ON UNIT   1016 AT TIME STEP      6, STRESS PERIOD     14
 UBDSV1 SAVING     FLOW-JA-FACE ON UNIT   1016 AT TIME STEP      6, STRESS PERIOD     14
 UBDSV06 SAVING              RCH IN MODEL TEST_TRANS       PACKAGE TEST_TRANS      CONNECTED TO MODEL TEST_TRANS       PACKAGE RCHA             ON UNIT   1016 AT TIME STEP      6, STRESS PERIOD     14
 UBDSV06 SAVING              CHD IN MODEL TEST_TRANS       PACKAGE TEST_TRANS      CONNECTED TO MODEL TEST_TRANS       PACKAGE CHD              ON UNIT   1016 AT TIME STEP      6, STRESS PERIOD     14

 HEAD WILL BE SAVED ON UNIT 1017 AT END OF TIME STEP    6, STRESS PERIOD   14
 UBDSV1 SAVING           STO-SS ON UNIT   1016 AT TIME STEP      7, STRESS PERIOD     14
 UBDSV1 SAVING           STO-SY ON UNIT   1016 AT TIME STEP      7, STRESS PERIOD     14
 UBDSV1 SAVING     FLOW-JA-FACE ON UNIT   1016 AT TIME STEP      7, STRESS PERIOD     14
 UBDSV06 SAVING              RCH IN MODEL TEST_TRANS       PACKAGE TEST_TRANS      CONNECTED TO MODEL TEST_TRANS       PACKAGE RCHA             ON UNIT   1016 AT TIME STEP      7, STRESS PERIOD     14
 UBDSV06 SAVING              CHD IN MODEL TEST_TRANS       PACKAGE TEST_TRANS      CONNECTED TO MODEL TEST_TRANS       PACKAGE CHD              ON UNIT   1016 AT TIME STEP      7, STRESS PERIOD     14

 HEAD WILL BE SAVED ON UNIT 1017 AT END OF TIME STEP    7, STRESS PERIOD   14
 UBDSV1 SAVING           STO-SS ON UNIT   1016 AT TIME STEP      8, STRESS PERIOD     14
 UBDSV1 SAVING           STO-SY ON UNIT   1016 AT TIME STEP      8, STRESS PERIOD     14
 UBDSV1 SAVING     FLOW-JA-FACE ON UNIT   1016 AT TIME STEP      8, STRESS PERIOD     14
 UBDSV06 SAVING              RCH IN MODEL TEST_TRANS       PACKAGE TEST_TRANS      CONNECTED TO MODEL TEST_TRANS       PACKAGE RCHA             ON UNIT   1016 AT TIME STEP      8, STRESS PERIOD     14
 UBDSV06 SAVING              CHD IN MODEL TEST_TRANS       PACKAGE TEST_TRANS      CONNECTED TO MODEL TEST_TRANS       PACKAGE CHD              ON UNIT   1016 AT TIME STEP      8, STRESS PERIOD     14

 HEAD WILL BE SAVED ON UNIT 1017 AT END OF TIME STEP    8, STRESS PERIOD   14
 UBDSV1 SAVING           STO-SS ON UNIT   1016 AT TIME STEP      9, STRESS PERIOD     14
 UBDSV1 SAVING           STO-SY ON UNIT   1016 AT TIME STEP      9, STRESS PERIOD     14
 UBDSV1 SAVING     FLOW-JA-FACE ON UNIT   1016 AT TIME STEP      9, STRESS PERIOD     14
 UBDSV06 SAVING              RCH IN MODEL TEST_TRANS       PACKAGE TEST_TRANS      CONNECTED TO MODEL TEST_TRANS       PACKAGE RCHA             ON UNIT   1016 AT TIME STEP      9, STRESS PERIOD     14
 UBDSV06 SAVING              CHD IN MODEL TEST_TRANS       PACKAGE TEST_TRANS      CONNECTED TO MODEL TEST_TRANS       PACKAGE CHD              ON UNIT   1016 AT TIME STEP      9, STRESS PERIOD     14

 HEAD WILL BE SAVED ON UNIT 1017 AT END OF TIME STEP    9, STRESS PERIOD   14
 UBDSV1 SAVING           STO-SS ON UNIT   1016 AT TIME STEP     10, STRESS PERIOD     14
 UBDSV1 SAVING           STO-SY ON UNIT   1016 AT TIME STEP     10, STRESS PERIOD     14
 UBDSV1 SAVING     FLOW-JA-FACE ON UNIT   1016 AT TIME STEP     10, STRESS PERIOD     14
 UBDSV06 SAVING              RCH IN MODEL TEST_TRANS       PACKAGE TEST_TRANS      CONNECTED TO MODEL TEST_TRANS       PACKAGE RCHA             ON UNIT   1016 AT TIME STEP     10, STRESS PERIOD     14
 UBDSV06 SAVING              CHD IN MODEL TEST_TRANS       PACKAGE TEST_TRANS      CONNECTED TO MODEL TEST_TRANS       PACKAGE CHD              ON UNIT   1016 AT TIME STEP     10, STRESS PERIOD     14
1
  HEAD IN LAYER   1 AT END OF TIME STEP  10 IN STRESS PERIOD   14
  ---------------------------------------------------------------------------

            1           2           3           4           5           6           7           8           9          10
           11          12          13          14          15          16          17          18          19          20
           21          22          23          24          25          26          27          28          29          30
 ........................................................................................................................
   1    28.25       28.25       28.24       28.22       28.20       28.18       28.15       28.11       28.07       28.02    
        27.97       27.91       27.85       27.78       27.70       27.62       27.53       27.43       27.32       27.21    
        27.08       26.94       26.79       26.63       26.45       26.25       26.02       25.77       25.47       25.12    
   2    28.25       28.25       28.24       28.22       28.20       28.18       28.15       28.11       28.07       28.02    
        27.97       27.91       27.85       27.78       27.70       27.62       27.53       27.43       27.32       27.21    
        27.08       26.94       26.79       26.63       26.45       26.25       26.02       25.77       25.47       25.12    
   3    28.25       28.25       28.24       28.22       28.20       28.18       28.15       28.11       28.07       28.02    
        27.97       27.91       27.85       27.78       27.70       27.62       27.53       27.43       27.32       27.21    
        27.08       26.94       26.79       26.63       26.45       26.25       26.02       25.77       25.47       25.12    
   4    28.25       28.25       28.24       28.22       28.20       28.18       28.15       28.11       28.07       28.02    
        27.97       27.91       27.85       27.78       27.70       27.62       27.53       27.43       27.32       27.21    
        27.08       26.94       26.79       26.63       26.45       26.25       26.02       25.77       25.47       25.12    
   5    28.25       28.25       28.24       28.22       28.20       28.18       28.15       28.11       28.07       28.02    
        27.97       27.91       27.85       27.78       27.70       27.62       27.53       27.43       27.32       27.21    
        27.08       26.94       26.79       26.63       26.45       26.25       26.02       25.77       25.47       25.12    
   6    28.25       28.25       28.24       28.22       28.20       28.18       28.15       28.11       28.07       28.02    
        27.97       27.91       27.85       27.78       27.70       27.62       27.53       27.43       27.32       27.21    
        27.08       26.94       26.79       26.63       26.45       26.25       26.02       25.77       25.47       25.12    
   7    28.25       28.25       28.24       28.22       28.20       28.18       28.15       28.11       28.07       28.02    
        27.97       27.91       27.85       27.78       27.70       27.62       27.53       27.43       27.32       27.21    
        27.08       26.94       26.79       26.63       26.45       26.25       26.02       25.77       25.47       25.12    
   8    28.25       28.25       28.24       28.22       28.20       28.18       28.15       28.11       28.07       28.02    
        27.97       27.91       27.85       27.78       27.70       27.62       27.53       27.43       27.32       27.21    
        27.08       26.94       26.79       26.63       26.45       26.25       26.02       25.77       25.47       25.12    
   9    28.25       28.25       28.24       28.22       28.20       28.18       28.15       28.11       28.07       28.02    
        27.97       27.91       27.85       27.78       27.70       27.62       27.53       27.43       27.32       27.21    
        27.08       26.94       26.79       26.63       26.45       26.25       26.02       25.77       25.47       25.12    
  10    28.25       28.25       28.24       28.22       28.20       28.18       28.15       28.11       28.07       28.02    
        27.97       27.91       27.85       27.78       27.70       27.62       27.53       27.43       27.32       27.21    
        27.08       26.94       26.79       26.63       26.45       26.25       26.02       25.77       25.47       25.12    
  11    28.25       28.25       28.24       28.22       28.20       28.18       28.15       28.11       28.07       28.02    
        27.97       27.91       27.85       27.78       27.70       27.62       27.53       27.43       27.32       27.21    
        27.08       26.94       26.79       26.63       26.45       26.25       26.02       25.77       25.47       25.12    
  12    28.25       28.25       28.24       28.22       28.20       28.18       28.15       28.11       28.07       28.02    
        27.97       27.91       27.85       27.78       27.70       27.62       27.53       27.43       27.32       27.21    
        27.08       26.94       26.79       26.63       26.45       26.25       26.02       25.77       25.47       25.12    
  13    28.25       28.25       28.24       28.22       28.20       28.18       28.15       28.11       28.07       28.02    
        27.97       27.91       27.85       27.78       27.70       27.62       27.53       27.43       27.32       27.21    
        27.08       26.94       26.79       26.63       26.45       26.25       26.02       25.77       25.47       25.12    
  14    28.25       28.25       28.24       28.22       28.20       28.18       28.15       28.11       28.07       28.02    
        27.97       27.91       27.85       27.78       27.70       27.62       27.53       27.43       27.32       27.21    
        27.08       26.94       26.79       26.63       26.45       26.25       26.02       25.77       25.47       25.12    
  15    28.25       28.25       28.24       28.22       28.20       28.18       28.15       28.11       28.07       28.02    
        27.97       27.91       27.85       27.78       27.70       27.62       27.53       27.43       27.32       27.21    
        27.08       26.94       26.79       26.63       26.45       26.25       26.02       25.77       25.47       25.12    
  16    28.25       28.25       28.24       28.22       28.20       28.18       28.15       28.11       28.07       28.02    
        27.97       27.91       27.85       27.78       27.70       27.62       27.53       27.43       27.32       27.21    
        27.08       26.94       26.79       26.63       26.45       26.25       26.02       25.77       25.47       25.12    
  17    28.25       28.25       28.24       28.22       28.20       28.18       28.15       28.11       28.07       28.02    
        27.97       27.91       27.85       27.78       27.70       27.62       27.53       27.43       27.32       27.21    
        27.08       26.94       26.79       26.63       26.45       26.25       26.02       25.77       25.47       25.12    
  18    28.25       28.25       28.24       28.22       28.20       28.18       28.15       28.11       28.07       28.02    
        27.97       27.91       27.85       27.78       27.70       27.62       27.53       27.43       27.32       27.21    
        27.08       26.94       26.79       26.63       26.45       26.25       26.02       25.77       25.47       25.12    
  19    28.25       28.25       28.24       28.22       28.20       28.18       28.15       28.11       28.07       28.02    
        27.97       27.91       27.85       27.78       27.70       27.62       27.53       27.43       27.32       27.21    
        27.08       26.94       26.79       26.63       26.45       26.25       26.02       25.77       25.47       25.12    
  20    28.25       28.25       28.24       28.22       28.20       28.18       28.15       28.11       28.07       28.02    
        27.97       27.91       27.85       27.78       27.70       27.62       27.53       27.43       27.32       27.21    
        27.08       26.94       26.79       26.63       26.45       26.25       26.02       25.77       25.47       25.12    
  21    28.25       28.25       28.24       28.22       28.20       28.18       28.15       28.11       28.07       28.02    
        27.97       27.91       27.85       27.78       27.70       27.62       27.53       27.43       27.32       27.21    
        27.08       26.94       26.79       26.63       26.45       26.25       26.02       25.77       25.47       25.12    
  22    28.25       28.25       28.24       28.22       28.20       28.18       28.15       28.11       28.07       28.02    
        27.97       27.91       27.85       27.78       27.70       27.62       27.53       27.43       27.32       27.21    
        27.08       26.94       26.79       26.63       26.45       26.25       26.02       25.77       25.47       25.12    
  23    28.25       28.25       28.24       28.22       28.20       28.18       28.15       28.11       28.07       28.02    
        27.97       27.91       27.85       27.78       27.70       27.62       27.53       27.43       27.32       27.21    
        27.08       26.94       26.79       26.63       26.45       26.25       26.02       25.77       25.47       25.12    
  24    28.25       28.25       28.24       28.22       28.20       28.18       28.15       28.11       28.07       28.02    
        27.97       27.91       27.85       27.78       27.70       27.62       27.53       27.43       27.32       27.21    
        27.08       26.94       26.79       26.63       26.45       26.25       26.02       25.77       25.47       25.12    
  25    28.25       28.25       28.24       28.22       28.20       28.18       28.15       28.11       28.07       28.02    
        27.97       27.91       27.85       27.78       27.70       27.62       27.53       27.43       27.32       27.21    
        27.08       26.94       26.79       26.63       26.45       26.25       26.02       25.77       25.47       25.12    
  26    28.25       28.25       28.24       28.22       28.20       28.18       28.15       28.11       28.07       28.02    
        27.97       27.91       27.85       27.78       27.70       27.62       27.53       27.43       27.32       27.21    
        27.08       26.94       26.79       26.63       26.45       26.25       26.02       25.77       25.47       25.12    
  27    28.25       28.25       28.24       28.22       28.20       28.18       28.15       28.11       28.07       28.02    
        27.97       27.91       27.85       27.78       27.70       27.62       27.53       27.43       27.32       27.21    
        27.08       26.94       26.79       26.63       26.45       26.25       26.02       25.77       25.47       25.12    
  28    28.25       28.25       28.24       28.22       28.20       28.18       28.15       28.11       28.07       28.02    
        27.97       27.91       27.85       27.78       27.70       27.62       27.53       27.43       27.32       27.21    
        27.08       26.94       26.79       26.63       26.45       26.25       26.02       25.77       25.47       25.12    
  29    28.25       28.25       28.24       28.22       28.20       28.18       28.15       28.11       28.07       28.02    
        27.97       27.91       27.85       27.78       27.70       27.62       27.53       27.43       27.32       27.21    
        27.08       26.94       26.79       26.63       26.45       26.25       26.02       25.77       25.47       25.12    
  30    28.25       28.25       28.24       28.22       28.20       28.18       28.15       28.11       28.07       28.02    
        27.97       27.91       27.85       27.78       27.70       27.62       27.53       27.43       27.32       27.21    
        27.08       26.94       26.79       26.63       26.45       26.25       26.02       25.77       25.47       25.12    

 HEAD WILL BE SAVED ON UNIT 1017 AT END OF TIME STEP   10, STRESS PERIOD   14


  VOLUME BUDGET FOR ENTIRE MODEL AT END OF TIME STEP   10, STRESS PERIOD  14
  ---------------------------------------------------------------------------------------------------

     CUMULATIVE VOLUME      L**3       RATES FOR THIS TIME STEP      L**3/T          PACKAGE NAME    
     ------------------                 ------------------------                     ----------------

           IN:                                      IN:
           ---                                      ---
              STO-SS =          23.4287                STO-SS =           0.0000     STORAGE         
              STO-SY =       14710.6766                STO-SY =           0.0000     STORAGE         
                 RCH =       68527.4223                   RCH =         286.0273     RCHA            
                 CHD =           0.0000                   CHD =           0.0000     CHD             

            TOTAL IN =       83261.5275              TOTAL IN =         286.0273

          OUT:                                     OUT:
          ----                                     ----
              STO-SS =          15.0634                STO-SS =           0.1254     STORAGE         
              STO-SY =        9610.2766                STO-SY =          77.8179     STORAGE         
                 RCH =           0.0000                   RCH =           0.0000     RCHA            
                 CHD =       73635.7538                   CHD =         208.0919     CHD             

           TOTAL OUT =       83261.0938             TOTAL OUT =         286.0352

            IN - OUT =           0.4337              IN - OUT =      -7.9076E-03

 PERCENT DISCREPANCY =           0.00     PERCENT DISCREPANCY =          -0.00




         TIME SUMMARY AT END OF TIME STEP   10 IN STRESS PERIOD   14
                    SECONDS     MINUTES      HOURS       DAYS        YEARS
                    -----------------------------------------------------------
   TIME STEP LENGTH 2.59200E+05  4320.0      72.000      3.0000     8.21355E-03
 STRESS PERIOD TIME 2.59200E+06  43200.      720.00      30.000     8.21355E-02
         TOTAL TIME 3.37824E+07 5.63040E+05  9384.0      391.00      1.0705    

 OUTPUT CONTROL FOR STRESS PERIOD 15 IS REPEATED USING SETTINGS FROM A PREVIOUS STRESS PERIOD.


 STRESS PERIOD 15 IS TRANSIENT


                 RECHARGE =  0.2465750E-02
 UBDSV1 SAVING           STO-SS ON UNIT   1016 AT TIME STEP      1, STRESS PERIOD     15
 UBDSV1 SAVING           STO-SY ON UNIT   1016 AT TIME STEP      1, STRESS PERIOD     15
 UBDSV1 SAVING     FLOW-JA-FACE ON UNIT   1016 AT TIME STEP      1, STRESS PERIOD     15
 UBDSV06 SAVING              RCH IN MODEL TEST_TRANS       PACKAGE TEST_TRANS      CONNECTED TO MODEL TEST_TRANS       PACKAGE RCHA             ON UNIT   1016 AT TIME STEP      1, STRESS PERIOD     15
 UBDSV06 SAVING              CHD IN MODEL TEST_TRANS       PACKAGE TEST_TRANS      CONNECTED TO MODEL TEST_TRANS       PACKAGE CHD              ON UNIT   1016 AT TIME STEP      1, STRESS PERIOD     15
1
  HEAD IN LAYER   1 AT END OF TIME STEP   1 IN STRESS PERIOD   15
  ---------------------------------------------------------------------------

            1           2           3           4           5           6           7           8           9          10
           11          12          13          14          15          16          17          18          19          20
           21          22          23          24          25          26          27          28          29          30
 ........................................................................................................................
   1    28.26       28.25       28.24       28.23       28.21       28.18       28.15       28.11       28.07       28.03    
        27.98       27.92       27.85       27.78       27.71       27.62       27.53       27.43       27.32       27.21    
        27.08       26.94       26.79       26.63       26.45       26.25       26.04       25.79       25.53       25.23    
   2    28.26       28.25       28.24       28.23       28.21       28.18       28.15       28.11       28.07       28.03    
        27.98       27.92       27.85       27.78       27.71       27.62       27.53       27.43       27.32       27.21    
        27.08       26.94       26.79       26.63       26.45       26.25       26.04       25.79       25.53       25.23    
   3    28.26       28.25       28.24       28.23       28.21       28.18       28.15       28.11       28.07       28.03    
        27.98       27.92       27.85       27.78       27.71       27.62       27.53       27.43       27.32       27.21    
        27.08       26.94       26.79       26.63       26.45       26.25       26.04       25.79       25.53       25.23    
   4    28.26       28.25       28.24       28.23       28.21       28.18       28.15       28.11       28.07       28.03    
        27.98       27.92       27.85       27.78       27.71       27.62       27.53       27.43       27.32       27.21    
        27.08       26.94       26.79       26.63       26.45       26.25       26.04       25.79       25.53       25.23    
   5    28.26       28.25       28.24       28.23       28.21       28.18       28.15       28.11       28.07       28.03    
        27.98       27.92       27.85       27.78       27.71       27.62       27.53       27.43       27.32       27.21    
        27.08       26.94       26.79       26.63       26.45       26.25       26.04       25.79       25.53       25.23    
   6    28.26       28.25       28.24       28.23       28.21       28.18       28.15       28.11       28.07       28.03    
        27.98       27.92       27.85       27.78       27.71       27.62       27.53       27.43       27.32       27.21    
        27.08       26.94       26.79       26.63       26.45       26.25       26.04       25.79       25.53       25.23    
   7    28.26       28.25       28.24       28.23       28.21       28.18       28.15       28.11       28.07       28.03    
        27.98       27.92       27.85       27.78       27.71       27.62       27.53       27.43       27.32       27.21    
        27.08       26.94       26.79       26.63       26.45       26.25       26.04       25.79       25.53       25.23    
   8    28.26       28.25       28.24       28.23       28.21       28.18       28.15       28.11       28.07       28.03    
        27.98       27.92       27.85       27.78       27.71       27.62       27.53       27.43       27.32       27.21    
        27.08       26.94       26.79       26.63       26.45       26.25       26.04       25.79       25.53       25.23    
   9    28.26       28.25       28.24       28.23       28.21       28.18       28.15       28.11       28.07       28.03    
        27.98       27.92       27.85       27.78       27.71       27.62       27.53       27.43       27.32       27.21    
        27.08       26.94       26.79       26.63       26.45       26.25       26.04       25.79       25.53       25.23    
  10    28.26       28.25       28.24       28.23       28.21       28.18       28.15       28.11       28.07       28.03    
        27.98       27.92       27.85       27.78       27.71       27.62       27.53       27.43       27.32       27.21    
        27.08       26.94       26.79       26.63       26.45       26.25       26.04       25.79       25.53       25.23    
  11    28.26       28.25       28.24       28.23       28.21       28.18       28.15       28.11       28.07       28.03    
        27.98       27.92       27.85       27.78       27.71       27.62       27.53       27.43       27.32       27.21    
        27.08       26.94       26.79       26.63       26.45       26.25       26.04       25.79       25.53       25.23    
  12    28.26       28.25       28.24       28.23       28.21       28.18       28.15       28.11       28.07       28.03    
        27.98       27.92       27.85       27.78       27.71       27.62       27.53       27.43       27.32       27.21    
        27.08       26.94       26.79       26.63       26.45       26.25       26.04       25.79       25.53       25.23    
  13    28.26       28.25       28.24       28.23       28.21       28.18       28.15       28.11       28.07       28.03    
        27.98       27.92       27.85       27.78       27.71       27.62       27.53       27.43       27.32       27.21    
        27.08       26.94       26.79       26.63       26.45       26.25       26.04       25.79       25.53       25.23    
  14    28.26       28.25       28.24       28.23       28.21       28.18       28.15       28.11       28.07       28.03    
        27.98       27.92       27.85       27.78       27.71       27.62       27.53       27.43       27.32       27.21    
        27.08       26.94       26.79       26.63       26.45       26.25       26.04       25.79       25.53       25.23    
  15    28.26       28.25       28.24       28.23       28.21       28.18       28.15       28.11       28.07       28.03    
        27.98       27.92       27.85       27.78       27.71       27.62       27.53       27.43       27.32       27.21    
        27.08       26.94       26.79       26.63       26.45       26.25       26.04       25.79       25.53       25.23    
  16    28.26       28.25       28.24       28.23       28.21       28.18       28.15       28.11       28.07       28.03    
        27.98       27.92       27.85       27.78       27.71       27.62       27.53       27.43       27.32       27.21    
        27.08       26.94       26.79       26.63       26.45       26.25       26.04       25.79       25.53       25.23    
  17    28.26       28.25       28.24       28.23       28.21       28.18       28.15       28.11       28.07       28.03    
        27.98       27.92       27.85       27.78       27.71       27.62       27.53       27.43       27.32       27.21    
        27.08       26.94       26.79       26.63       26.45       26.25       26.04       25.79       25.53       25.23    
  18    28.26       28.25       28.24       28.23       28.21       28.18       28.15       28.11       28.07       28.03    
        27.98       27.92       27.85       27.78       27.71       27.62       27.53       27.43       27.32       27.21    
        27.08       26.94       26.79       26.63       26.45       26.25       26.04       25.79       25.53       25.23    
  19    28.26       28.25       28.24       28.23       28.21       28.18       28.15       28.11       28.07       28.03    
        27.98       27.92       27.85       27.78       27.71       27.62       27.53       27.43       27.32       27.21    
        27.08       26.94       26.79       26.63       26.45       26.25       26.04       25.79       25.53       25.23    
  20    28.26       28.25       28.24       28.23       28.21       28.18       28.15       28.11       28.07       28.03    
        27.98       27.92       27.85       27.78       27.71       27.62       27.53       27.43       27.32       27.21    
        27.08       26.94       26.79       26.63       26.45       26.25       26.04       25.79       25.53       25.23    
  21    28.26       28.25       28.24       28.23       28.21       28.18       28.15       28.11       28.07       28.03    
        27.98       27.92       27.85       27.78       27.71       27.62       27.53       27.43       27.32       27.21    
        27.08       26.94       26.79       26.63       26.45       26.25       26.04       25.79       25.53       25.23    
  22    28.26       28.25       28.24       28.23       28.21       28.18       28.15       28.11       28.07       28.03    
        27.98       27.92       27.85       27.78       27.71       27.62       27.53       27.43       27.32       27.21    
        27.08       26.94       26.79       26.63       26.45       26.25       26.04       25.79       25.53       25.23    
  23    28.26       28.25       28.24       28.23       28.21       28.18       28.15       28.11       28.07       28.03    
        27.98       27.92       27.85       27.78       27.71       27.62       27.53       27.43       27.32       27.21    
        27.08       26.94       26.79       26.63       26.45       26.25       26.04       25.79       25.53       25.23    
  24    28.26       28.25       28.24       28.23       28.21       28.18       28.15       28.11       28.07       28.03    
        27.98       27.92       27.85       27.78       27.71       27.62       27.53       27.43       27.32       27.21    
        27.08       26.94       26.79       26.63       26.45       26.25       26.04       25.79       25.53       25.23    
  25    28.26       28.25       28.24       28.23       28.21       28.18       28.15       28.11       28.07       28.03    
        27.98       27.92       27.85       27.78       27.71       27.62       27.53       27.43       27.32       27.21    
        27.08       26.94       26.79       26.63       26.45       26.25       26.04       25.79       25.53       25.23    
  26    28.26       28.25       28.24       28.23       28.21       28.18       28.15       28.11       28.07       28.03    
        27.98       27.92       27.85       27.78       27.71       27.62       27.53       27.43       27.32       27.21    
        27.08       26.94       26.79       26.63       26.45       26.25       26.04       25.79       25.53       25.23    
  27    28.26       28.25       28.24       28.23       28.21       28.18       28.15       28.11       28.07       28.03    
        27.98       27.92       27.85       27.78       27.71       27.62       27.53       27.43       27.32       27.21    
        27.08       26.94       26.79       26.63       26.45       26.25       26.04       25.79       25.53       25.23    
  28    28.26       28.25       28.24       28.23       28.21       28.18       28.15       28.11       28.07       28.03    
        27.98       27.92       27.85       27.78       27.71       27.62       27.53       27.43       27.32       27.21    
        27.08       26.94       26.79       26.63       26.45       26.25       26.04       25.79       25.53       25.23    
  29    28.26       28.25       28.24       28.23       28.21       28.18       28.15       28.11       28.07       28.03    
        27.98       27.92       27.85       27.78       27.71       27.62       27.53       27.43       27.32       27.21    
        27.08       26.94       26.79       26.63       26.45       26.25       26.04       25.79       25.53       25.23    
  30    28.26       28.25       28.24       28.23       28.21       28.18       28.15       28.11       28.07       28.03    
        27.98       27.92       27.85       27.78       27.71       27.62       27.53       27.43       27.32       27.21    
        27.08       26.94       26.79       26.63       26.45       26.25       26.04       25.79       25.53       25.23    

 HEAD WILL BE SAVED ON UNIT 1017 AT END OF TIME STEP    1, STRESS PERIOD   15



         TIME SUMMARY AT END OF TIME STEP    1 IN STRESS PERIOD   15
                    SECONDS     MINUTES      HOURS       DAYS        YEARS
                    -----------------------------------------------------------
   TIME STEP LENGTH 2.59200E+05  4320.0      72.000      3.0000     8.21355E-03
 STRESS PERIOD TIME 2.59200E+05  4320.0      72.000      3.0000     8.21355E-03
         TOTAL TIME 3.40416E+07 5.67360E+05  9456.0      394.00      1.0787    
 UBDSV1 SAVING           STO-SS ON UNIT   1016 AT TIME STEP      2, STRESS PERIOD     15
 UBDSV1 SAVING           STO-SY ON UNIT   1016 AT TIME STEP      2, STRESS PERIOD     15
 UBDSV1 SAVING     FLOW-JA-FACE ON UNIT   1016 AT TIME STEP      2, STRESS PERIOD     15
 UBDSV06 SAVING              RCH IN MODEL TEST_TRANS       PACKAGE TEST_TRANS      CONNECTED TO MODEL TEST_TRANS       PACKAGE RCHA             ON UNIT   1016 AT TIME STEP      2, STRESS PERIOD     15
 UBDSV06 SAVING              CHD IN MODEL TEST_TRANS       PACKAGE TEST_TRANS      CONNECTED TO MODEL TEST_TRANS       PACKAGE CHD              ON UNIT   1016 AT TIME STEP      2, STRESS PERIOD     15

 HEAD WILL BE SAVED ON UNIT 1017 AT END OF TIME STEP    2, STRESS PERIOD   15
 UBDSV1 SAVING           STO-SS ON UNIT   1016 AT TIME STEP      3, STRESS PERIOD     15
 UBDSV1 SAVING           STO-SY ON UNIT   1016 AT TIME STEP      3, STRESS PERIOD     15
 UBDSV1 SAVING     FLOW-JA-FACE ON UNIT   1016 AT TIME STEP      3, STRESS PERIOD     15
 UBDSV06 SAVING              RCH IN MODEL TEST_TRANS       PACKAGE TEST_TRANS      CONNECTED TO MODEL TEST_TRANS       PACKAGE RCHA             ON UNIT   1016 AT TIME STEP      3, STRESS PERIOD     15
 UBDSV06 SAVING              CHD IN MODEL TEST_TRANS       PACKAGE TEST_TRANS      CONNECTED TO MODEL TEST_TRANS       PACKAGE CHD              ON UNIT   1016 AT TIME STEP      3, STRESS PERIOD     15

 HEAD WILL BE SAVED ON UNIT 1017 AT END OF TIME STEP    3, STRESS PERIOD   15
 UBDSV1 SAVING           STO-SS ON UNIT   1016 AT TIME STEP      4, STRESS PERIOD     15
 UBDSV1 SAVING           STO-SY ON UNIT   1016 AT TIME STEP      4, STRESS PERIOD     15
 UBDSV1 SAVING     FLOW-JA-FACE ON UNIT   1016 AT TIME STEP      4, STRESS PERIOD     15
 UBDSV06 SAVING              RCH IN MODEL TEST_TRANS       PACKAGE TEST_TRANS      CONNECTED TO MODEL TEST_TRANS       PACKAGE RCHA             ON UNIT   1016 AT TIME STEP      4, STRESS PERIOD     15
 UBDSV06 SAVING              CHD IN MODEL TEST_TRANS       PACKAGE TEST_TRANS      CONNECTED TO MODEL TEST_TRANS       PACKAGE CHD              ON UNIT   1016 AT TIME STEP      4, STRESS PERIOD     15

 HEAD WILL BE SAVED ON UNIT 1017 AT END OF TIME STEP    4, STRESS PERIOD   15
 UBDSV1 SAVING           STO-SS ON UNIT   1016 AT TIME STEP      5, STRESS PERIOD     15
 UBDSV1 SAVING           STO-SY ON UNIT   1016 AT TIME STEP      5, STRESS PERIOD     15
 UBDSV1 SAVING     FLOW-JA-FACE ON UNIT   1016 AT TIME STEP      5, STRESS PERIOD     15
 UBDSV06 SAVING              RCH IN MODEL TEST_TRANS       PACKAGE TEST_TRANS      CONNECTED TO MODEL TEST_TRANS       PACKAGE RCHA             ON UNIT   1016 AT TIME STEP      5, STRESS PERIOD     15
 UBDSV06 SAVING              CHD IN MODEL TEST_TRANS       PACKAGE TEST_TRANS      CONNECTED TO MODEL TEST_TRANS       PACKAGE CHD              ON UNIT   1016 AT TIME STEP      5, STRESS PERIOD     15

 HEAD WILL BE SAVED ON UNIT 1017 AT END OF TIME STEP    5, STRESS PERIOD   15
 UBDSV1 SAVING           STO-SS ON UNIT   1016 AT TIME STEP      6, STRESS PERIOD     15
 UBDSV1 SAVING           STO-SY ON UNIT   1016 AT TIME STEP      6, STRESS PERIOD     15
 UBDSV1 SAVING     FLOW-JA-FACE ON UNIT   1016 AT TIME STEP      6, STRESS PERIOD     15
 UBDSV06 SAVING              RCH IN MODEL TEST_TRANS       PACKAGE TEST_TRANS      CONNECTED TO MODEL TEST_TRANS       PACKAGE RCHA             ON UNIT   1016 AT TIME STEP      6, STRESS PERIOD     15
 UBDSV06 SAVING              CHD IN MODEL TEST_TRANS       PACKAGE TEST_TRANS      CONNECTED TO MODEL TEST_TRANS       PACKAGE CHD              ON UNIT   1016 AT TIME STEP      6, STRESS PERIOD     15

 HEAD WILL BE SAVED ON UNIT 1017 AT END OF TIME STEP    6, STRESS PERIOD   15
 UBDSV1 SAVING           STO-SS ON UNIT   1016 AT TIME STEP      7, STRESS PERIOD     15
 UBDSV1 SAVING           STO-SY ON UNIT   1016 AT TIME STEP      7, STRESS PERIOD     15
 UBDSV1 SAVING     FLOW-JA-FACE ON UNIT   1016 AT TIME STEP      7, STRESS PERIOD     15
 UBDSV06 SAVING              RCH IN MODEL TEST_TRANS       PACKAGE TEST_TRANS      CONNECTED TO MODEL TEST_TRANS       PACKAGE RCHA             ON UNIT   1016 AT TIME STEP      7, STRESS PERIOD     15
 UBDSV06 SAVING              CHD IN MODEL TEST_TRANS       PACKAGE TEST_TRANS      CONNECTED TO MODEL TEST_TRANS       PACKAGE CHD              ON UNIT   1016 AT TIME STEP      7, STRESS PERIOD     15

 HEAD WILL BE SAVED ON UNIT 1017 AT END OF TIME STEP    7, STRESS PERIOD   15
 UBDSV1 SAVING           STO-SS ON UNIT   1016 AT TIME STEP      8, STRESS PERIOD     15
 UBDSV1 SAVING           STO-SY ON UNIT   1016 AT TIME STEP      8, STRESS PERIOD     15
 UBDSV1 SAVING     FLOW-JA-FACE ON UNIT   1016 AT TIME STEP      8, STRESS PERIOD     15
 UBDSV06 SAVING              RCH IN MODEL TEST_TRANS       PACKAGE TEST_TRANS      CONNECTED TO MODEL TEST_TRANS       PACKAGE RCHA             ON UNIT   1016 AT TIME STEP      8, STRESS PERIOD     15
 UBDSV06 SAVING              CHD IN MODEL TEST_TRANS       PACKAGE TEST_TRANS      CONNECTED TO MODEL TEST_TRANS       PACKAGE CHD              ON UNIT   1016 AT TIME STEP      8, STRESS PERIOD     15

 HEAD WILL BE SAVED ON UNIT 1017 AT END OF TIME STEP    8, STRESS PERIOD   15
 UBDSV1 SAVING           STO-SS ON UNIT   1016 AT TIME STEP      9, STRESS PERIOD     15
 UBDSV1 SAVING           STO-SY ON UNIT   1016 AT TIME STEP      9, STRESS PERIOD     15
 UBDSV1 SAVING     FLOW-JA-FACE ON UNIT   1016 AT TIME STEP      9, STRESS PERIOD     15
 UBDSV06 SAVING              RCH IN MODEL TEST_TRANS       PACKAGE TEST_TRANS      CONNECTED TO MODEL TEST_TRANS       PACKAGE RCHA             ON UNIT   1016 AT TIME STEP      9, STRESS PERIOD     15
 UBDSV06 SAVING              CHD IN MODEL TEST_TRANS       PACKAGE TEST_TRANS      CONNECTED TO MODEL TEST_TRANS       PACKAGE CHD              ON UNIT   1016 AT TIME STEP      9, STRESS PERIOD     15

 HEAD WILL BE SAVED ON UNIT 1017 AT END OF TIME STEP    9, STRESS PERIOD   15
 UBDSV1 SAVING           STO-SS ON UNIT   1016 AT TIME STEP     10, STRESS PERIOD     15
 UBDSV1 SAVING           STO-SY ON UNIT   1016 AT TIME STEP     10, STRESS PERIOD     15
 UBDSV1 SAVING     FLOW-JA-FACE ON UNIT   1016 AT TIME STEP     10, STRESS PERIOD     15
 UBDSV06 SAVING              RCH IN MODEL TEST_TRANS       PACKAGE TEST_TRANS      CONNECTED TO MODEL TEST_TRANS       PACKAGE RCHA             ON UNIT   1016 AT TIME STEP     10, STRESS PERIOD     15
 UBDSV06 SAVING              CHD IN MODEL TEST_TRANS       PACKAGE TEST_TRANS      CONNECTED TO MODEL TEST_TRANS       PACKAGE CHD              ON UNIT   1016 AT TIME STEP     10, STRESS PERIOD     15
1
  HEAD IN LAYER   1 AT END OF TIME STEP  10 IN STRESS PERIOD   15
  ---------------------------------------------------------------------------

            1           2           3           4           5           6           7           8           9          10
           11          12          13          14          15          16          17          18          19          20
           21          22          23          24          25          26          27          28          29          30
 ........................................................................................................................
   1    28.28       28.28       28.27       28.25       28.23       28.21       28.18       28.14       28.10       28.05    
        28.00       27.94       27.88       27.81       27.73       27.65       27.56       27.46       27.35       27.23    
        27.11       26.97       26.82       26.66       26.48       26.29       26.07       25.83       25.56       25.23    
   2    28.28       28.28       28.27       28.25       28.23       28.21       28.18       28.14       28.10       28.05    
        28.00       27.94       27.88       27.81       27.73       27.65       27.56       27.46       27.35       27.23    
        27.11       26.97       26.82       26.66       26.48       26.29       26.07       25.83       25.56       25.23    
   3    28.28       28.28       28.27       28.25       28.23       28.21       28.18       28.14       28.10       28.05    
        28.00       27.94       27.88       27.81       27.73       27.65       27.56       27.46       27.35       27.23    
        27.11       26.97       26.82       26.66       26.48       26.29       26.07       25.83       25.56       25.23    
   4    28.28       28.28       28.27       28.25       28.23       28.21       28.18       28.14       28.10       28.05    
        28.00       27.94       27.88       27.81       27.73       27.65       27.56       27.46       27.35       27.23    
        27.11       26.97       26.82       26.66       26.48       26.29       26.07       25.83       25.56       25.23    
   5    28.28       28.28       28.27       28.25       28.23       28.21       28.18       28.14       28.10       28.05    
        28.00       27.94       27.88       27.81       27.73       27.65       27.56       27.46       27.35       27.23    
        27.11       26.97       26.82       26.66       26.48       26.29       26.07       25.83       25.56       25.23    
   6    28.28       28.28       28.27       28.25       28.23       28.21       28.18       28.14       28.10       28.05    
        28.00       27.94       27.88       27.81       27.73       27.65       27.56       27.46       27.35       27.23    
        27.11       26.97       26.82       26.66       26.48       26.29       26.07       25.83       25.56       25.23    
   7    28.28       28.28       28.27       28.25       28.23       28.21       28.18       28.14       28.10       28.05    
        28.00       27.94       27.88       27.81       27.73       27.65       27.56       27.46       27.35       27.23    
        27.11       26.97       26.82       26.66       26.48       26.29       26.07       25.83       25.56       25.23    
   8    28.28       28.28       28.27       28.25       28.23       28.21       28.18       28.14       28.10       28.05    
        28.00       27.94       27.88       27.81       27.73       27.65       27.56       27.46       27.35       27.23    
        27.11       26.97       26.82       26.66       26.48       26.29       26.07       25.83       25.56       25.23    
   9    28.28       28.28       28.27       28.25       28.23       28.21       28.18       28.14       28.10       28.05    
        28.00       27.94       27.88       27.81       27.73       27.65       27.56       27.46       27.35       27.23    
        27.11       26.97       26.82       26.66       26.48       26.29       26.07       25.83       25.56       25.23    
  10    28.28       28.28       28.27       28.25       28.23       28.21       28.18       28.14       28.10       28.05    
        28.00       27.94       27.88       27.81       27.73       27.65       27.56       27.46       27.35       27.23    
        27.11       26.97       26.82       26.66       26.48       26.29       26.07       25.83       25.56       25.23    
  11    28.28       28.28       28.27       28.25       28.23       28.21       28.18       28.14       28.10       28.05    
        28.00       27.94       27.88       27.81       27.73       27.65       27.56       27.46       27.35       27.23    
        27.11       26.97       26.82       26.66       26.48       26.29       26.07       25.83       25.56       25.23    
  12    28.28       28.28       28.27       28.25       28.23       28.21       28.18       28.14       28.10       28.05    
        28.00       27.94       27.88       27.81       27.73       27.65       27.56       27.46       27.35       27.23    
        27.11       26.97       26.82       26.66       26.48       26.29       26.07       25.83       25.56       25.23    
  13    28.28       28.28       28.27       28.25       28.23       28.21       28.18       28.14       28.10       28.05    
        28.00       27.94       27.88       27.81       27.73       27.65       27.56       27.46       27.35       27.23    
        27.11       26.97       26.82       26.66       26.48       26.29       26.07       25.83       25.56       25.23    
  14    28.28       28.28       28.27       28.25       28.23       28.21       28.18       28.14       28.10       28.05    
        28.00       27.94       27.88       27.81       27.73       27.65       27.56       27.46       27.35       27.23    
        27.11       26.97       26.82       26.66       26.48       26.29       26.07       25.83       25.56       25.23    
  15    28.28       28.28       28.27       28.25       28.23       28.21       28.18       28.14       28.10       28.05    
        28.00       27.94       27.88       27.81       27.73       27.65       27.56       27.46       27.35       27.23    
        27.11       26.97       26.82       26.66       26.48       26.29       26.07       25.83       25.56       25.23    
  16    28.28       28.28       28.27       28.25       28.23       28.21       28.18       28.14       28.10       28.05    
        28.00       27.94       27.88       27.81       27.73       27.65       27.56       27.46       27.35       27.23    
        27.11       26.97       26.82       26.66       26.48       26.29       26.07       25.83       25.56       25.23    
  17    28.28       28.28       28.27       28.25       28.23       28.21       28.18       28.14       28.10       28.05    
        28.00       27.94       27.88       27.81       27.73       27.65       27.56       27.46       27.35       27.23    
        27.11       26.97       26.82       26.66       26.48       26.29       26.07       25.83       25.56       25.23    
  18    28.28       28.28       28.27       28.25       28.23       28.21       28.18       28.14       28.10       28.05    
        28.00       27.94       27.88       27.81       27.73       27.65       27.56       27.46       27.35       27.23    
        27.11       26.97       26.82       26.66       26.48       26.29       26.07       25.83       25.56       25.23    
  19    28.28       28.28       28.27       28.25       28.23       28.21       28.18       28.14       28.10       28.05    
        28.00       27.94       27.88       27.81       27.73       27.65       27.56       27.46       27.35       27.23    
        27.11       26.97       26.82       26.66       26.48       26.29       26.07       25.83       25.56       25.23    
  20    28.28       28.28       28.27       28.25       28.23       28.21       28.18       28.14       28.10       28.05    
        28.00       27.94       27.88       27.81       27.73       27.65       27.56       27.46       27.35       27.23    
        27.11       26.97       26.82       26.66       26.48       26.29       26.07       25.83       25.56       25.23    
  21    28.28       28.28       28.27       28.25       28.23       28.21       28.18       28.14       28.10       28.05    
        28.00       27.94       27.88       27.81       27.73       27.65       27.56       27.46       27.35       27.23    
        27.11       26.97       26.82       26.66       26.48       26.29       26.07       25.83       25.56       25.23    
  22    28.28       28.28       28.27       28.25       28.23       28.21       28.18       28.14       28.10       28.05    
        28.00       27.94       27.88       27.81       27.73       27.65       27.56       27.46       27.35       27.23    
        27.11       26.97       26.82       26.66       26.48       26.29       26.07       25.83       25.56       25.23    
  23    28.28       28.28       28.27       28.25       28.23       28.21       28.18       28.14       28.10       28.05    
        28.00       27.94       27.88       27.81       27.73       27.65       27.56       27.46       27.35       27.23    
        27.11       26.97       26.82       26.66       26.48       26.29       26.07       25.83       25.56       25.23    
  24    28.28       28.28       28.27       28.25       28.23       28.21       28.18       28.14       28.10       28.05    
        28.00       27.94       27.88       27.81       27.73       27.65       27.56       27.46       27.35       27.23    
        27.11       26.97       26.82       26.66       26.48       26.29       26.07       25.83       25.56       25.23    
  25    28.28       28.28       28.27       28.25       28.23       28.21       28.18       28.14       28.10       28.05    
        28.00       27.94       27.88       27.81       27.73       27.65       27.56       27.46       27.35       27.23    
        27.11       26.97       26.82       26.66       26.48       26.29       26.07       25.83       25.56       25.23    
  26    28.28       28.28       28.27       28.25       28.23       28.21       28.18       28.14       28.10       28.05    
        28.00       27.94       27.88       27.81       27.73       27.65       27.56       27.46       27.35       27.23    
        27.11       26.97       26.82       26.66       26.48       26.29       26.07       25.83       25.56       25.23    
  27    28.28       28.28       28.27       28.25       28.23       28.21       28.18       28.14       28.10       28.05    
        28.00       27.94       27.88       27.81       27.73       27.65       27.56       27.46       27.35       27.23    
        27.11       26.97       26.82       26.66       26.48       26.29       26.07       25.83       25.56       25.23    
  28    28.28       28.28       28.27       28.25       28.23       28.21       28.18       28.14       28.10       28.05    
        28.00       27.94       27.88       27.81       27.73       27.65       27.56       27.46       27.35       27.23    
        27.11       26.97       26.82       26.66       26.48       26.29       26.07       25.83       25.56       25.23    
  29    28.28       28.28       28.27       28.25       28.23       28.21       28.18       28.14       28.10       28.05    
        28.00       27.94       27.88       27.81       27.73       27.65       27.56       27.46       27.35       27.23    
        27.11       26.97       26.82       26.66       26.48       26.29       26.07       25.83       25.56       25.23    
  30    28.28       28.28       28.27       28.25       28.23       28.21       28.18       28.14       28.10       28.05    
        28.00       27.94       27.88       27.81       27.73       27.65       27.56       27.46       27.35       27.23    
        27.11       26.97       26.82       26.66       26.48       26.29       26.07       25.83       25.56       25.23    

 HEAD WILL BE SAVED ON UNIT 1017 AT END OF TIME STEP   10, STRESS PERIOD   15


  VOLUME BUDGET FOR ENTIRE MODEL AT END OF TIME STEP   10, STRESS PERIOD  15
  ---------------------------------------------------------------------------------------------------

     CUMULATIVE VOLUME      L**3       RATES FOR THIS TIME STEP      L**3/T          PACKAGE NAME    
     ------------------                 ------------------------                     ----------------

           IN:                                      IN:
           ---                                      ---
              STO-SS =          23.4287                STO-SS =           0.0000     STORAGE         
              STO-SY =       14710.6766                STO-SY =           0.0000     STORAGE         
                 RCH =       74963.0298                   RCH =         214.5203     RCHA            
                 CHD =           0.0000                   CHD =           0.0000     CHD             

            TOTAL IN =       89697.1350              TOTAL IN =         214.5203

          OUT:                                     OUT:
          ----                                     ----
              STO-SS =          16.0133                STO-SS =       2.4768E-02     STORAGE         
              STO-SY =       10214.0070                STO-SY =          15.3716     STORAGE         
                 RCH =           0.0000                   RCH =           0.0000     RCHA            
                 CHD =       79467.0374                   CHD =         199.1496     CHD             

           TOTAL OUT =       89697.0577             TOTAL OUT =         214.5460

            IN - OUT =       7.7325E-02              IN - OUT =      -2.5768E-02

 PERCENT DISCREPANCY =           0.00     PERCENT DISCREPANCY =          -0.01




         TIME SUMMARY AT END OF TIME STEP   10 IN STRESS PERIOD   15
                    SECONDS     MINUTES      HOURS       DAYS        YEARS
                    -----------------------------------------------------------
   TIME STEP LENGTH 2.59200E+05  4320.0      72.000      3.0000     8.21355E-03
 STRESS PERIOD TIME 2.59200E+06  43200.      720.00      30.000     8.21355E-02
         TOTAL TIME 3.63744E+07 6.06240E+05  10104.      421.00      1.1526    

 OUTPUT CONTROL FOR STRESS PERIOD 16 IS REPEATED USING SETTINGS FROM A PREVIOUS STRESS PERIOD.


 STRESS PERIOD 16 IS TRANSIENT


                 RECHARGE =  0.1643840E-02
 UBDSV1 SAVING           STO-SS ON UNIT   1016 AT TIME STEP      1, STRESS PERIOD     16
 UBDSV1 SAVING           STO-SY ON UNIT   1016 AT TIME STEP      1, STRESS PERIOD     16
 UBDSV1 SAVING     FLOW-JA-FACE ON UNIT   1016 AT TIME STEP      1, STRESS PERIOD     16
 UBDSV06 SAVING              RCH IN MODEL TEST_TRANS       PACKAGE TEST_TRANS      CONNECTED TO MODEL TEST_TRANS       PACKAGE RCHA             ON UNIT   1016 AT TIME STEP      1, STRESS PERIOD     16
 UBDSV06 SAVING              CHD IN MODEL TEST_TRANS       PACKAGE TEST_TRANS      CONNECTED TO MODEL TEST_TRANS       PACKAGE CHD              ON UNIT   1016 AT TIME STEP      1, STRESS PERIOD     16
1
  HEAD IN LAYER   1 AT END OF TIME STEP   1 IN STRESS PERIOD   16
  ---------------------------------------------------------------------------

            1           2           3           4           5           6           7           8           9          10
           11          12          13          14          15          16          17          18          19          20
           21          22          23          24          25          26          27          28          29          30
 ........................................................................................................................
   1    28.27       28.27       28.26       28.24       28.22       28.20       28.17       28.13       28.09       28.04    
        27.99       27.93       27.87       27.80       27.72       27.64       27.55       27.45       27.34       27.23    
        27.10       26.96       26.82       26.66       26.48       26.29       26.08       25.86       25.61       25.34    
   2    28.27       28.27       28.26       28.24       28.22       28.20       28.17       28.13       28.09       28.04    
        27.99       27.93       27.87       27.80       27.72       27.64       27.55       27.45       27.34       27.23    
        27.10       26.96       26.82       26.66       26.48       26.29       26.08       25.86       25.61       25.34    
   3    28.27       28.27       28.26       28.24       28.22       28.20       28.17       28.13       28.09       28.04    
        27.99       27.93       27.87       27.80       27.72       27.64       27.55       27.45       27.34       27.23    
        27.10       26.96       26.82       26.66       26.48       26.29       26.08       25.86       25.61       25.34    
   4    28.27       28.27       28.26       28.24       28.22       28.20       28.17       28.13       28.09       28.04    
        27.99       27.93       27.87       27.80       27.72       27.64       27.55       27.45       27.34       27.23    
        27.10       26.96       26.82       26.66       26.48       26.29       26.08       25.86       25.61       25.34    
   5    28.27       28.27       28.26       28.24       28.22       28.20       28.17       28.13       28.09       28.04    
        27.99       27.93       27.87       27.80       27.72       27.64       27.55       27.45       27.34       27.23    
        27.10       26.96       26.82       26.66       26.48       26.29       26.08       25.86       25.61       25.34    
   6    28.27       28.27       28.26       28.24       28.22       28.20       28.17       28.13       28.09       28.04    
        27.99       27.93       27.87       27.80       27.72       27.64       27.55       27.45       27.34       27.23    
        27.10       26.96       26.82       26.66       26.48       26.29       26.08       25.86       25.61       25.34    
   7    28.27       28.27       28.26       28.24       28.22       28.20       28.17       28.13       28.09       28.04    
        27.99       27.93       27.87       27.80       27.72       27.64       27.55       27.45       27.34       27.23    
        27.10       26.96       26.82       26.66       26.48       26.29       26.08       25.86       25.61       25.34    
   8    28.27       28.27       28.26       28.24       28.22       28.20       28.17       28.13       28.09       28.04    
        27.99       27.93       27.87       27.80       27.72       27.64       27.55       27.45       27.34       27.23    
        27.10       26.96       26.82       26.66       26.48       26.29       26.08       25.86       25.61       25.34    
   9    28.27       28.27       28.26       28.24       28.22       28.20       28.17       28.13       28.09       28.04    
        27.99       27.93       27.87       27.80       27.72       27.64       27.55       27.45       27.34       27.23    
        27.10       26.96       26.82       26.66       26.48       26.29       26.08       25.86       25.61       25.34    
  10    28.27       28.27       28.26       28.24       28.22       28.20       28.17       28.13       28.09       28.04    
        27.99       27.93       27.87       27.80       27.72       27.64       27.55       27.45       27.34       27.23    
        27.10       26.96       26.82       26.66       26.48       26.29       26.08       25.86       25.61       25.34    
  11    28.27       28.27       28.26       28.24       28.22       28.20       28.17       28.13       28.09       28.04    
        27.99       27.93       27.87       27.80       27.72       27.64       27.55       27.45       27.34       27.23    
        27.10       26.96       26.82       26.66       26.48       26.29       26.08       25.86       25.61       25.34    
  12    28.27       28.27       28.26       28.24       28.22       28.20       28.17       28.13       28.09       28.04    
        27.99       27.93       27.87       27.80       27.72       27.64       27.55       27.45       27.34       27.23    
        27.10       26.96       26.82       26.66       26.48       26.29       26.08       25.86       25.61       25.34    
  13    28.27       28.27       28.26       28.24       28.22       28.20       28.17       28.13       28.09       28.04    
        27.99       27.93       27.87       27.80       27.72       27.64       27.55       27.45       27.34       27.23    
        27.10       26.96       26.82       26.66       26.48       26.29       26.08       25.86       25.61       25.34    
  14    28.27       28.27       28.26       28.24       28.22       28.20       28.17       28.13       28.09       28.04    
        27.99       27.93       27.87       27.80       27.72       27.64       27.55       27.45       27.34       27.23    
        27.10       26.96       26.82       26.66       26.48       26.29       26.08       25.86       25.61       25.34    
  15    28.27       28.27       28.26       28.24       28.22       28.20       28.17       28.13       28.09       28.04    
        27.99       27.93       27.87       27.80       27.72       27.64       27.55       27.45       27.34       27.23    
        27.10       26.96       26.82       26.66       26.48       26.29       26.08       25.86       25.61       25.34    
  16    28.27       28.27       28.26       28.24       28.22       28.20       28.17       28.13       28.09       28.04    
        27.99       27.93       27.87       27.80       27.72       27.64       27.55       27.45       27.34       27.23    
        27.10       26.96       26.82       26.66       26.48       26.29       26.08       25.86       25.61       25.34    
  17    28.27       28.27       28.26       28.24       28.22       28.20       28.17       28.13       28.09       28.04    
        27.99       27.93       27.87       27.80       27.72       27.64       27.55       27.45       27.34       27.23    
        27.10       26.96       26.82       26.66       26.48       26.29       26.08       25.86       25.61       25.34    
  18    28.27       28.27       28.26       28.24       28.22       28.20       28.17       28.13       28.09       28.04    
        27.99       27.93       27.87       27.80       27.72       27.64       27.55       27.45       27.34       27.23    
        27.10       26.96       26.82       26.66       26.48       26.29       26.08       25.86       25.61       25.34    
  19    28.27       28.27       28.26       28.24       28.22       28.20       28.17       28.13       28.09       28.04    
        27.99       27.93       27.87       27.80       27.72       27.64       27.55       27.45       27.34       27.23    
        27.10       26.96       26.82       26.66       26.48       26.29       26.08       25.86       25.61       25.34    
  20    28.27       28.27       28.26       28.24       28.22       28.20       28.17       28.13       28.09       28.04    
        27.99       27.93       27.87       27.80       27.72       27.64       27.55       27.45       27.34       27.23    
        27.10       26.96       26.82       26.66       26.48       26.29       26.08       25.86       25.61       25.34    
  21    28.27       28.27       28.26       28.24       28.22       28.20       28.17       28.13       28.09       28.04    
        27.99       27.93       27.87       27.80       27.72       27.64       27.55       27.45       27.34       27.23    
        27.10       26.96       26.82       26.66       26.48       26.29       26.08       25.86       25.61       25.34    
  22    28.27       28.27       28.26       28.24       28.22       28.20       28.17       28.13       28.09       28.04    
        27.99       27.93       27.87       27.80       27.72       27.64       27.55       27.45       27.34       27.23    
        27.10       26.96       26.82       26.66       26.48       26.29       26.08       25.86       25.61       25.34    
  23    28.27       28.27       28.26       28.24       28.22       28.20       28.17       28.13       28.09       28.04    
        27.99       27.93       27.87       27.80       27.72       27.64       27.55       27.45       27.34       27.23    
        27.10       26.96       26.82       26.66       26.48       26.29       26.08       25.86       25.61       25.34    
  24    28.27       28.27       28.26       28.24       28.22       28.20       28.17       28.13       28.09       28.04    
        27.99       27.93       27.87       27.80       27.72       27.64       27.55       27.45       27.34       27.23    
        27.10       26.96       26.82       26.66       26.48       26.29       26.08       25.86       25.61       25.34    
  25    28.27       28.27       28.26       28.24       28.22       28.20       28.17       28.13       28.09       28.04    
        27.99       27.93       27.87       27.80       27.72       27.64       27.55       27.45       27.34       27.23    
        27.10       26.96       26.82       26.66       26.48       26.29       26.08       25.86       25.61       25.34    
  26    28.27       28.27       28.26       28.24       28.22       28.20       28.17       28.13       28.09       28.04    
        27.99       27.93       27.87       27.80       27.72       27.64       27.55       27.45       27.34       27.23    
        27.10       26.96       26.82       26.66       26.48       26.29       26.08       25.86       25.61       25.34    
  27    28.27       28.27       28.26       28.24       28.22       28.20       28.17       28.13       28.09       28.04    
        27.99       27.93       27.87       27.80       27.72       27.64       27.55       27.45       27.34       27.23    
        27.10       26.96       26.82       26.66       26.48       26.29       26.08       25.86       25.61       25.34    
  28    28.27       28.27       28.26       28.24       28.22       28.20       28.17       28.13       28.09       28.04    
        27.99       27.93       27.87       27.80       27.72       27.64       27.55       27.45       27.34       27.23    
        27.10       26.96       26.82       26.66       26.48       26.29       26.08       25.86       25.61       25.34    
  29    28.27       28.27       28.26       28.24       28.22       28.20       28.17       28.13       28.09       28.04    
        27.99       27.93       27.87       27.80       27.72       27.64       27.55       27.45       27.34       27.23    
        27.10       26.96       26.82       26.66       26.48       26.29       26.08       25.86       25.61       25.34    
  30    28.27       28.27       28.26       28.24       28.22       28.20       28.17       28.13       28.09       28.04    
        27.99       27.93       27.87       27.80       27.72       27.64       27.55       27.45       27.34       27.23    
        27.10       26.96       26.82       26.66       26.48       26.29       26.08       25.86       25.61       25.34    

 HEAD WILL BE SAVED ON UNIT 1017 AT END OF TIME STEP    1, STRESS PERIOD   16



         TIME SUMMARY AT END OF TIME STEP    1 IN STRESS PERIOD   16
                    SECONDS     MINUTES      HOURS       DAYS        YEARS
                    -----------------------------------------------------------
   TIME STEP LENGTH 2.59200E+05  4320.0      72.000      3.0000     8.21355E-03
 STRESS PERIOD TIME 2.59200E+05  4320.0      72.000      3.0000     8.21355E-03
         TOTAL TIME 3.66336E+07 6.10560E+05  10176.      424.00      1.1608    
 UBDSV1 SAVING           STO-SS ON UNIT   1016 AT TIME STEP      2, STRESS PERIOD     16
 UBDSV1 SAVING           STO-SY ON UNIT   1016 AT TIME STEP      2, STRESS PERIOD     16
 UBDSV1 SAVING     FLOW-JA-FACE ON UNIT   1016 AT TIME STEP      2, STRESS PERIOD     16
 UBDSV06 SAVING              RCH IN MODEL TEST_TRANS       PACKAGE TEST_TRANS      CONNECTED TO MODEL TEST_TRANS       PACKAGE RCHA             ON UNIT   1016 AT TIME STEP      2, STRESS PERIOD     16
 UBDSV06 SAVING              CHD IN MODEL TEST_TRANS       PACKAGE TEST_TRANS      CONNECTED TO MODEL TEST_TRANS       PACKAGE CHD              ON UNIT   1016 AT TIME STEP      2, STRESS PERIOD     16

 HEAD WILL BE SAVED ON UNIT 1017 AT END OF TIME STEP    2, STRESS PERIOD   16
 UBDSV1 SAVING           STO-SS ON UNIT   1016 AT TIME STEP      3, STRESS PERIOD     16
 UBDSV1 SAVING           STO-SY ON UNIT   1016 AT TIME STEP      3, STRESS PERIOD     16
 UBDSV1 SAVING     FLOW-JA-FACE ON UNIT   1016 AT TIME STEP      3, STRESS PERIOD     16
 UBDSV06 SAVING              RCH IN MODEL TEST_TRANS       PACKAGE TEST_TRANS      CONNECTED TO MODEL TEST_TRANS       PACKAGE RCHA             ON UNIT   1016 AT TIME STEP      3, STRESS PERIOD     16
 UBDSV06 SAVING              CHD IN MODEL TEST_TRANS       PACKAGE TEST_TRANS      CONNECTED TO MODEL TEST_TRANS       PACKAGE CHD              ON UNIT   1016 AT TIME STEP      3, STRESS PERIOD     16

 HEAD WILL BE SAVED ON UNIT 1017 AT END OF TIME STEP    3, STRESS PERIOD   16
 UBDSV1 SAVING           STO-SS ON UNIT   1016 AT TIME STEP      4, STRESS PERIOD     16
 UBDSV1 SAVING           STO-SY ON UNIT   1016 AT TIME STEP      4, STRESS PERIOD     16
 UBDSV1 SAVING     FLOW-JA-FACE ON UNIT   1016 AT TIME STEP      4, STRESS PERIOD     16
 UBDSV06 SAVING              RCH IN MODEL TEST_TRANS       PACKAGE TEST_TRANS      CONNECTED TO MODEL TEST_TRANS       PACKAGE RCHA             ON UNIT   1016 AT TIME STEP      4, STRESS PERIOD     16
 UBDSV06 SAVING              CHD IN MODEL TEST_TRANS       PACKAGE TEST_TRANS      CONNECTED TO MODEL TEST_TRANS       PACKAGE CHD              ON UNIT   1016 AT TIME STEP      4, STRESS PERIOD     16

 HEAD WILL BE SAVED ON UNIT 1017 AT END OF TIME STEP    4, STRESS PERIOD   16
 UBDSV1 SAVING           STO-SS ON UNIT   1016 AT TIME STEP      5, STRESS PERIOD     16
 UBDSV1 SAVING           STO-SY ON UNIT   1016 AT TIME STEP      5, STRESS PERIOD     16
 UBDSV1 SAVING     FLOW-JA-FACE ON UNIT   1016 AT TIME STEP      5, STRESS PERIOD     16
 UBDSV06 SAVING              RCH IN MODEL TEST_TRANS       PACKAGE TEST_TRANS      CONNECTED TO MODEL TEST_TRANS       PACKAGE RCHA             ON UNIT   1016 AT TIME STEP      5, STRESS PERIOD     16
 UBDSV06 SAVING              CHD IN MODEL TEST_TRANS       PACKAGE TEST_TRANS      CONNECTED TO MODEL TEST_TRANS       PACKAGE CHD              ON UNIT   1016 AT TIME STEP      5, STRESS PERIOD     16

 HEAD WILL BE SAVED ON UNIT 1017 AT END OF TIME STEP    5, STRESS PERIOD   16
 UBDSV1 SAVING           STO-SS ON UNIT   1016 AT TIME STEP      6, STRESS PERIOD     16
 UBDSV1 SAVING           STO-SY ON UNIT   1016 AT TIME STEP      6, STRESS PERIOD     16
 UBDSV1 SAVING     FLOW-JA-FACE ON UNIT   1016 AT TIME STEP      6, STRESS PERIOD     16
 UBDSV06 SAVING              RCH IN MODEL TEST_TRANS       PACKAGE TEST_TRANS      CONNECTED TO MODEL TEST_TRANS       PACKAGE RCHA             ON UNIT   1016 AT TIME STEP      6, STRESS PERIOD     16
 UBDSV06 SAVING              CHD IN MODEL TEST_TRANS       PACKAGE TEST_TRANS      CONNECTED TO MODEL TEST_TRANS       PACKAGE CHD              ON UNIT   1016 AT TIME STEP      6, STRESS PERIOD     16

 HEAD WILL BE SAVED ON UNIT 1017 AT END OF TIME STEP    6, STRESS PERIOD   16
 UBDSV1 SAVING           STO-SS ON UNIT   1016 AT TIME STEP      7, STRESS PERIOD     16
 UBDSV1 SAVING           STO-SY ON UNIT   1016 AT TIME STEP      7, STRESS PERIOD     16
 UBDSV1 SAVING     FLOW-JA-FACE ON UNIT   1016 AT TIME STEP      7, STRESS PERIOD     16
 UBDSV06 SAVING              RCH IN MODEL TEST_TRANS       PACKAGE TEST_TRANS      CONNECTED TO MODEL TEST_TRANS       PACKAGE RCHA             ON UNIT   1016 AT TIME STEP      7, STRESS PERIOD     16
 UBDSV06 SAVING              CHD IN MODEL TEST_TRANS       PACKAGE TEST_TRANS      CONNECTED TO MODEL TEST_TRANS       PACKAGE CHD              ON UNIT   1016 AT TIME STEP      7, STRESS PERIOD     16

 HEAD WILL BE SAVED ON UNIT 1017 AT END OF TIME STEP    7, STRESS PERIOD   16
 UBDSV1 SAVING           STO-SS ON UNIT   1016 AT TIME STEP      8, STRESS PERIOD     16
 UBDSV1 SAVING           STO-SY ON UNIT   1016 AT TIME STEP      8, STRESS PERIOD     16
 UBDSV1 SAVING     FLOW-JA-FACE ON UNIT   1016 AT TIME STEP      8, STRESS PERIOD     16
 UBDSV06 SAVING              RCH IN MODEL TEST_TRANS       PACKAGE TEST_TRANS      CONNECTED TO MODEL TEST_TRANS       PACKAGE RCHA             ON UNIT   1016 AT TIME STEP      8, STRESS PERIOD     16
 UBDSV06 SAVING              CHD IN MODEL TEST_TRANS       PACKAGE TEST_TRANS      CONNECTED TO MODEL TEST_TRANS       PACKAGE CHD              ON UNIT   1016 AT TIME STEP      8, STRESS PERIOD     16

 HEAD WILL BE SAVED ON UNIT 1017 AT END OF TIME STEP    8, STRESS PERIOD   16
 UBDSV1 SAVING           STO-SS ON UNIT   1016 AT TIME STEP      9, STRESS PERIOD     16
 UBDSV1 SAVING           STO-SY ON UNIT   1016 AT TIME STEP      9, STRESS PERIOD     16
 UBDSV1 SAVING     FLOW-JA-FACE ON UNIT   1016 AT TIME STEP      9, STRESS PERIOD     16
 UBDSV06 SAVING              RCH IN MODEL TEST_TRANS       PACKAGE TEST_TRANS      CONNECTED TO MODEL TEST_TRANS       PACKAGE RCHA             ON UNIT   1016 AT TIME STEP      9, STRESS PERIOD     16
 UBDSV06 SAVING              CHD IN MODEL TEST_TRANS       PACKAGE TEST_TRANS      CONNECTED TO MODEL TEST_TRANS       PACKAGE CHD              ON UNIT   1016 AT TIME STEP      9, STRESS PERIOD     16

 HEAD WILL BE SAVED ON UNIT 1017 AT END OF TIME STEP    9, STRESS PERIOD   16
 UBDSV1 SAVING           STO-SS ON UNIT   1016 AT TIME STEP     10, STRESS PERIOD     16
 UBDSV1 SAVING           STO-SY ON UNIT   1016 AT TIME STEP     10, STRESS PERIOD     16
 UBDSV1 SAVING     FLOW-JA-FACE ON UNIT   1016 AT TIME STEP     10, STRESS PERIOD     16
 UBDSV06 SAVING              RCH IN MODEL TEST_TRANS       PACKAGE TEST_TRANS      CONNECTED TO MODEL TEST_TRANS       PACKAGE RCHA             ON UNIT   1016 AT TIME STEP     10, STRESS PERIOD     16
 UBDSV06 SAVING              CHD IN MODEL TEST_TRANS       PACKAGE TEST_TRANS      CONNECTED TO MODEL TEST_TRANS       PACKAGE CHD              ON UNIT   1016 AT TIME STEP     10, STRESS PERIOD     16
1
  HEAD IN LAYER   1 AT END OF TIME STEP  10 IN STRESS PERIOD   16
  ---------------------------------------------------------------------------

            1           2           3           4           5           6           7           8           9          10
           11          12          13          14          15          16          17          18          19          20
           21          22          23          24          25          26          27          28          29          30
 ........................................................................................................................
   1    28.19       28.19       28.18       28.16       28.14       28.12       28.09       28.05       28.01       27.97    
        27.92       27.86       27.80       27.73       27.65       27.57       27.48       27.39       27.28       27.17    
        27.05       26.92       26.78       26.63       26.46       26.28       26.08       25.86       25.62       25.34    
   2    28.19       28.19       28.18       28.16       28.14       28.12       28.09       28.05       28.01       27.97    
        27.92       27.86       27.80       27.73       27.65       27.57       27.48       27.39       27.28       27.17    
        27.05       26.92       26.78       26.63       26.46       26.28       26.08       25.86       25.62       25.34    
   3    28.19       28.19       28.18       28.16       28.14       28.12       28.09       28.05       28.01       27.97    
        27.92       27.86       27.80       27.73       27.65       27.57       27.48       27.39       27.28       27.17    
        27.05       26.92       26.78       26.63       26.46       26.28       26.08       25.86       25.62       25.34    
   4    28.19       28.19       28.18       28.16       28.14       28.12       28.09       28.05       28.01       27.97    
        27.92       27.86       27.80       27.73       27.65       27.57       27.48       27.39       27.28       27.17    
        27.05       26.92       26.78       26.63       26.46       26.28       26.08       25.86       25.62       25.34    
   5    28.19       28.19       28.18       28.16       28.14       28.12       28.09       28.05       28.01       27.97    
        27.92       27.86       27.80       27.73       27.65       27.57       27.48       27.39       27.28       27.17    
        27.05       26.92       26.78       26.63       26.46       26.28       26.08       25.86       25.62       25.34    
   6    28.19       28.19       28.18       28.16       28.14       28.12       28.09       28.05       28.01       27.97    
        27.92       27.86       27.80       27.73       27.65       27.57       27.48       27.39       27.28       27.17    
        27.05       26.92       26.78       26.63       26.46       26.28       26.08       25.86       25.62       25.34    
   7    28.19       28.19       28.18       28.16       28.14       28.12       28.09       28.05       28.01       27.97    
        27.92       27.86       27.80       27.73       27.65       27.57       27.48       27.39       27.28       27.17    
        27.05       26.92       26.78       26.63       26.46       26.28       26.08       25.86       25.62       25.34    
   8    28.19       28.19       28.18       28.16       28.14       28.12       28.09       28.05       28.01       27.97    
        27.92       27.86       27.80       27.73       27.65       27.57       27.48       27.39       27.28       27.17    
        27.05       26.92       26.78       26.63       26.46       26.28       26.08       25.86       25.62       25.34    
   9    28.19       28.19       28.18       28.16       28.14       28.12       28.09       28.05       28.01       27.97    
        27.92       27.86       27.80       27.73       27.65       27.57       27.48       27.39       27.28       27.17    
        27.05       26.92       26.78       26.63       26.46       26.28       26.08       25.86       25.62       25.34    
  10    28.19       28.19       28.18       28.16       28.14       28.12       28.09       28.05       28.01       27.97    
        27.92       27.86       27.80       27.73       27.65       27.57       27.48       27.39       27.28       27.17    
        27.05       26.92       26.78       26.63       26.46       26.28       26.08       25.86       25.62       25.34    
  11    28.19       28.19       28.18       28.16       28.14       28.12       28.09       28.05       28.01       27.97    
        27.92       27.86       27.80       27.73       27.65       27.57       27.48       27.39       27.28       27.17    
        27.05       26.92       26.78       26.63       26.46       26.28       26.08       25.86       25.62       25.34    
  12    28.19       28.19       28.18       28.16       28.14       28.12       28.09       28.05       28.01       27.97    
        27.92       27.86       27.80       27.73       27.65       27.57       27.48       27.39       27.28       27.17    
        27.05       26.92       26.78       26.63       26.46       26.28       26.08       25.86       25.62       25.34    
  13    28.19       28.19       28.18       28.16       28.14       28.12       28.09       28.05       28.01       27.97    
        27.92       27.86       27.80       27.73       27.65       27.57       27.48       27.39       27.28       27.17    
        27.05       26.92       26.78       26.63       26.46       26.28       26.08       25.86       25.62       25.34    
  14    28.19       28.19       28.18       28.16       28.14       28.12       28.09       28.05       28.01       27.97    
        27.92       27.86       27.80       27.73       27.65       27.57       27.48       27.39       27.28       27.17    
        27.05       26.92       26.78       26.63       26.46       26.28       26.08       25.86       25.62       25.34    
  15    28.19       28.19       28.18       28.16       28.14       28.12       28.09       28.05       28.01       27.97    
        27.92       27.86       27.80       27.73       27.65       27.57       27.48       27.39       27.28       27.17    
        27.05       26.92       26.78       26.63       26.46       26.28       26.08       25.86       25.62       25.34    
  16    28.19       28.19       28.18       28.16       28.14       28.12       28.09       28.05       28.01       27.97    
        27.92       27.86       27.80       27.73       27.65       27.57       27.48       27.39       27.28       27.17    
        27.05       26.92       26.78       26.63       26.46       26.28       26.08       25.86       25.62       25.34    
  17    28.19       28.19       28.18       28.16       28.14       28.12       28.09       28.05       28.01       27.97    
        27.92       27.86       27.80       27.73       27.65       27.57       27.48       27.39       27.28       27.17    
        27.05       26.92       26.78       26.63       26.46       26.28       26.08       25.86       25.62       25.34    
  18    28.19       28.19       28.18       28.16       28.14       28.12       28.09       28.05       28.01       27.97    
        27.92       27.86       27.80       27.73       27.65       27.57       27.48       27.39       27.28       27.17    
        27.05       26.92       26.78       26.63       26.46       26.28       26.08       25.86       25.62       25.34    
  19    28.19       28.19       28.18       28.16       28.14       28.12       28.09       28.05       28.01       27.97    
        27.92       27.86       27.80       27.73       27.65       27.57       27.48       27.39       27.28       27.17    
        27.05       26.92       26.78       26.63       26.46       26.28       26.08       25.86       25.62       25.34    
  20    28.19       28.19       28.18       28.16       28.14       28.12       28.09       28.05       28.01       27.97    
        27.92       27.86       27.80       27.73       27.65       27.57       27.48       27.39       27.28       27.17    
        27.05       26.92       26.78       26.63       26.46       26.28       26.08       25.86       25.62       25.34    
  21    28.19       28.19       28.18       28.16       28.14       28.12       28.09       28.05       28.01       27.97    
        27.92       27.86       27.80       27.73       27.65       27.57       27.48       27.39       27.28       27.17    
        27.05       26.92       26.78       26.63       26.46       26.28       26.08       25.86       25.62       25.34    
  22    28.19       28.19       28.18       28.16       28.14       28.12       28.09       28.05       28.01       27.97    
        27.92       27.86       27.80       27.73       27.65       27.57       27.48       27.39       27.28       27.17    
        27.05       26.92       26.78       26.63       26.46       26.28       26.08       25.86       25.62       25.34    
  23    28.19       28.19       28.18       28.16       28.14       28.12       28.09       28.05       28.01       27.97    
        27.92       27.86       27.80       27.73       27.65       27.57       27.48       27.39       27.28       27.17    
        27.05       26.92       26.78       26.63       26.46       26.28       26.08       25.86       25.62       25.34    
  24    28.19       28.19       28.18       28.16       28.14       28.12       28.09       28.05       28.01       27.97    
        27.92       27.86       27.80       27.73       27.65       27.57       27.48       27.39       27.28       27.17    
        27.05       26.92       26.78       26.63       26.46       26.28       26.08       25.86       25.62       25.34    
  25    28.19       28.19       28.18       28.16       28.14       28.12       28.09       28.05       28.01       27.97    
        27.92       27.86       27.80       27.73       27.65       27.57       27.48       27.39       27.28       27.17    
        27.05       26.92       26.78       26.63       26.46       26.28       26.08       25.86       25.62       25.34    
  26    28.19       28.19       28.18       28.16       28.14       28.12       28.09       28.05       28.01       27.97    
        27.92       27.86       27.80       27.73       27.65       27.57       27.48       27.39       27.28       27.17    
        27.05       26.92       26.78       26.63       26.46       26.28       26.08       25.86       25.62       25.34    
  27    28.19       28.19       28.18       28.16       28.14       28.12       28.09       28.05       28.01       27.97    
        27.92       27.86       27.80       27.73       27.65       27.57       27.48       27.39       27.28       27.17    
        27.05       26.92       26.78       26.63       26.46       26.28       26.08       25.86       25.62       25.34    
  28    28.19       28.19       28.18       28.16       28.14       28.12       28.09       28.05       28.01       27.97    
        27.92       27.86       27.80       27.73       27.65       27.57       27.48       27.39       27.28       27.17    
        27.05       26.92       26.78       26.63       26.46       26.28       26.08       25.86       25.62       25.34    
  29    28.19       28.19       28.18       28.16       28.14       28.12       28.09       28.05       28.01       27.97    
        27.92       27.86       27.80       27.73       27.65       27.57       27.48       27.39       27.28       27.17    
        27.05       26.92       26.78       26.63       26.46       26.28       26.08       25.86       25.62       25.34    
  30    28.19       28.19       28.18       28.16       28.14       28.12       28.09       28.05       28.01       27.97    
        27.92       27.86       27.80       27.73       27.65       27.57       27.48       27.39       27.28       27.17    
        27.05       26.92       26.78       26.63       26.46       26.28       26.08       25.86       25.62       25.34    

 HEAD WILL BE SAVED ON UNIT 1017 AT END OF TIME STEP   10, STRESS PERIOD   16


  VOLUME BUDGET FOR ENTIRE MODEL AT END OF TIME STEP   10, STRESS PERIOD  16
  ---------------------------------------------------------------------------------------------------

     CUMULATIVE VOLUME      L**3       RATES FOR THIS TIME STEP      L**3/T          PACKAGE NAME    
     ------------------                 ------------------------                     ----------------

           IN:                                      IN:
           ---                                      ---
              STO-SS =          25.2867                STO-SS =       5.7321E-02     STORAGE         
              STO-SY =       15853.0551                STO-SY =          35.3974     STORAGE         
                 RCH =       79253.4522                   RCH =         143.0141     RCHA            
                 CHD =           0.0000                   CHD =           0.0000     CHD             

            TOTAL IN =       95131.7940              TOTAL IN =         178.4688

          OUT:                                     OUT:
          ----                                     ----
              STO-SS =          16.1216                STO-SS =           0.0000     STORAGE         
              STO-SY =       10289.9838                STO-SY =           0.0000     STORAGE         
                 RCH =           0.0000                   RCH =           0.0000     RCHA            
                 CHD =       84825.0686                   CHD =         178.4359     CHD             

           TOTAL OUT =       95131.1740             TOTAL OUT =         178.4359

            IN - OUT =           0.6200              IN - OUT =       3.2960E-02

 PERCENT DISCREPANCY =           0.00     PERCENT DISCREPANCY =           0.02




         TIME SUMMARY AT END OF TIME STEP   10 IN STRESS PERIOD   16
                    SECONDS     MINUTES      HOURS       DAYS        YEARS
                    -----------------------------------------------------------
   TIME STEP LENGTH 2.59200E+05  4320.0      72.000      3.0000     8.21355E-03
 STRESS PERIOD TIME 2.59200E+06  43200.      720.00      30.000     8.21355E-02
         TOTAL TIME 3.89664E+07 6.49440E+05  10824.      451.00      1.2348    

 OUTPUT CONTROL FOR STRESS PERIOD 17 IS REPEATED USING SETTINGS FROM A PREVIOUS STRESS PERIOD.


 STRESS PERIOD 17 IS TRANSIENT


                 RECHARGE =  0.1232880E-02
 UBDSV1 SAVING           STO-SS ON UNIT   1016 AT TIME STEP      1, STRESS PERIOD     17
 UBDSV1 SAVING           STO-SY ON UNIT   1016 AT TIME STEP      1, STRESS PERIOD     17
 UBDSV1 SAVING     FLOW-JA-FACE ON UNIT   1016 AT TIME STEP      1, STRESS PERIOD     17
 UBDSV06 SAVING              RCH IN MODEL TEST_TRANS       PACKAGE TEST_TRANS      CONNECTED TO MODEL TEST_TRANS       PACKAGE RCHA             ON UNIT   1016 AT TIME STEP      1, STRESS PERIOD     17
 UBDSV06 SAVING              CHD IN MODEL TEST_TRANS       PACKAGE TEST_TRANS      CONNECTED TO MODEL TEST_TRANS       PACKAGE CHD              ON UNIT   1016 AT TIME STEP      1, STRESS PERIOD     17
1
  HEAD IN LAYER   1 AT END OF TIME STEP   1 IN STRESS PERIOD   17
  ---------------------------------------------------------------------------

            1           2           3           4           5           6           7           8           9          10
           11          12          13          14          15          16          17          18          19          20
           21          22          23          24          25          26          27          28          29          30
 ........................................................................................................................
   1    28.18       28.17       28.16       28.15       28.13       28.11       28.08       28.04       28.00       27.95    
        27.90       27.85       27.78       27.71       27.64       27.56       27.47       27.37       27.27       27.16    
        27.04       26.92       26.78       26.63       26.48       26.32       26.16       26.01       25.88       25.81    
   2    28.18       28.17       28.16       28.15       28.13       28.11       28.08       28.04       28.00       27.95    
        27.90       27.85       27.78       27.71       27.64       27.56       27.47       27.37       27.27       27.16    
        27.04       26.92       26.78       26.63       26.48       26.32       26.16       26.01       25.88       25.81    
   3    28.18       28.17       28.16       28.15       28.13       28.11       28.08       28.04       28.00       27.95    
        27.90       27.85       27.78       27.71       27.64       27.56       27.47       27.37       27.27       27.16    
        27.04       26.92       26.78       26.63       26.48       26.32       26.16       26.01       25.88       25.81    
   4    28.18       28.17       28.16       28.15       28.13       28.11       28.08       28.04       28.00       27.95    
        27.90       27.85       27.78       27.71       27.64       27.56       27.47       27.37       27.27       27.16    
        27.04       26.92       26.78       26.63       26.48       26.32       26.16       26.01       25.88       25.81    
   5    28.18       28.17       28.16       28.15       28.13       28.11       28.08       28.04       28.00       27.95    
        27.90       27.85       27.78       27.71       27.64       27.56       27.47       27.37       27.27       27.16    
        27.04       26.92       26.78       26.63       26.48       26.32       26.16       26.01       25.88       25.81    
   6    28.18       28.17       28.16       28.15       28.13       28.11       28.08       28.04       28.00       27.95    
        27.90       27.85       27.78       27.71       27.64       27.56       27.47       27.37       27.27       27.16    
        27.04       26.92       26.78       26.63       26.48       26.32       26.16       26.01       25.88       25.81    
   7    28.18       28.17       28.16       28.15       28.13       28.11       28.08       28.04       28.00       27.95    
        27.90       27.85       27.78       27.71       27.64       27.56       27.47       27.37       27.27       27.16    
        27.04       26.92       26.78       26.63       26.48       26.32       26.16       26.01       25.88       25.81    
   8    28.18       28.17       28.16       28.15       28.13       28.11       28.08       28.04       28.00       27.95    
        27.90       27.85       27.78       27.71       27.64       27.56       27.47       27.37       27.27       27.16    
        27.04       26.92       26.78       26.63       26.48       26.32       26.16       26.01       25.88       25.81    
   9    28.18       28.17       28.16       28.15       28.13       28.11       28.08       28.04       28.00       27.95    
        27.90       27.85       27.78       27.71       27.64       27.56       27.47       27.37       27.27       27.16    
        27.04       26.92       26.78       26.63       26.48       26.32       26.16       26.01       25.88       25.81    
  10    28.18       28.17       28.16       28.15       28.13       28.11       28.08       28.04       28.00       27.95    
        27.90       27.85       27.78       27.71       27.64       27.56       27.47       27.37       27.27       27.16    
        27.04       26.92       26.78       26.63       26.48       26.32       26.16       26.01       25.88       25.81    
  11    28.18       28.17       28.16       28.15       28.13       28.11       28.08       28.04       28.00       27.95    
        27.90       27.85       27.78       27.71       27.64       27.56       27.47       27.37       27.27       27.16    
        27.04       26.92       26.78       26.64       26.48       26.32       26.16       26.01       25.88       25.81    
  12    28.18       28.17       28.16       28.15       28.13       28.11       28.08       28.04       28.00       27.95    
        27.90       27.85       27.78       27.71       27.64       27.56       27.47       27.37       27.27       27.16    
        27.04       26.92       26.78       26.64       26.48       26.32       26.16       26.01       25.88       25.81    
  13    28.18       28.17       28.16       28.15       28.13       28.11       28.08       28.04       28.00       27.95    
        27.90       27.85       27.78       27.71       27.64       27.56       27.47       27.37       27.27       27.16    
        27.04       26.92       26.78       26.64       26.48       26.32       26.16       26.01       25.88       25.81    
  14    28.18       28.17       28.16       28.15       28.13       28.11       28.08       28.04       28.00       27.95    
        27.90       27.85       27.78       27.71       27.64       27.56       27.47       27.37       27.27       27.16    
        27.04       26.92       26.78       26.64       26.48       26.32       26.16       26.01       25.88       25.81    
  15    28.18       28.17       28.16       28.15       28.13       28.11       28.08       28.04       28.00       27.95    
        27.90       27.85       27.78       27.71       27.64       27.56       27.47       27.37       27.27       27.16    
        27.04       26.92       26.78       26.64       26.48       26.32       26.16       26.01       25.88       25.81    
  16    28.18       28.17       28.16       28.15       28.13       28.11       28.08       28.04       28.00       27.95    
        27.90       27.85       27.78       27.71       27.64       27.56       27.47       27.37       27.27       27.16    
        27.04       26.92       26.78       26.64       26.48       26.32       26.16       26.01       25.88       25.81    
  17    28.18       28.17       28.16       28.15       28.13       28.11       28.08       28.04       28.00       27.95    
        27.90       27.85       27.78       27.71       27.64       27.56       27.47       27.37       27.27       27.16    
        27.04       26.92       26.78       26.64       26.48       26.32       26.16       26.01       25.88       25.81    
  18    28.18       28.17       28.16       28.15       28.13       28.11       28.08       28.04       28.00       27.95    
        27.90       27.85       27.78       27.71       27.64       27.56       27.47       27.37       27.27       27.16    
        27.04       26.92       26.78       26.64       26.48       26.32       26.16       26.01       25.88       25.81    
  19    28.18       28.17       28.16       28.15       28.13       28.11       28.08       28.04       28.00       27.95    
        27.90       27.85       27.78       27.71       27.64       27.56       27.47       27.37       27.27       27.16    
        27.04       26.92       26.78       26.64       26.48       26.32       26.16       26.01       25.88       25.81    
  20    28.18       28.17       28.16       28.15       28.13       28.11       28.08       28.04       28.00       27.95    
        27.90       27.85       27.78       27.71       27.64       27.56       27.47       27.37       27.27       27.16    
        27.04       26.92       26.78       26.64       26.48       26.32       26.16       26.01       25.88       25.81    
  21    28.18       28.17       28.16       28.15       28.13       28.11       28.08       28.04       28.00       27.95    
        27.90       27.85       27.78       27.71       27.64       27.56       27.47       27.37       27.27       27.16    
        27.04       26.92       26.78       26.64       26.48       26.32       26.16       26.01       25.88       25.81    
  22    28.18       28.17       28.16       28.15       28.13       28.11       28.08       28.04       28.00       27.95    
        27.90       27.85       27.78       27.71       27.64       27.56       27.47       27.37       27.27       27.16    
        27.04       26.92       26.78       26.64       26.48       26.32       26.16       26.01       25.88       25.81    
  23    28.18       28.17       28.16       28.15       28.13       28.11       28.08       28.04       28.00       27.95    
        27.90       27.85       27.78       27.71       27.64       27.56       27.47       27.37       27.27       27.16    
        27.04       26.92       26.78       26.64       26.48       26.32       26.16       26.01       25.88       25.81    
  24    28.18       28.17       28.16       28.15       28.13       28.11       28.08       28.04       28.00       27.95    
        27.90       27.85       27.78       27.71       27.64       27.56       27.47       27.37       27.27       27.16    
        27.04       26.92       26.78       26.64       26.48       26.32       26.16       26.01       25.88       25.81    
  25    28.18       28.17       28.16       28.15       28.13       28.11       28.08       28.04       28.00       27.95    
        27.90       27.85       27.78       27.71       27.64       27.56       27.47       27.37       27.27       27.16    
        27.04       26.92       26.78       26.64       26.48       26.32       26.16       26.01       25.88       25.81    
  26    28.18       28.17       28.16       28.15       28.13       28.11       28.08       28.04       28.00       27.95    
        27.90       27.85       27.78       27.71       27.64       27.56       27.47       27.37       27.27       27.16    
        27.04       26.92       26.78       26.64       26.48       26.32       26.16       26.01       25.88       25.81    
  27    28.18       28.17       28.16       28.15       28.13       28.11       28.08       28.04       28.00       27.95    
        27.90       27.85       27.78       27.71       27.64       27.56       27.47       27.37       27.27       27.16    
        27.04       26.92       26.78       26.64       26.48       26.32       26.16       26.01       25.88       25.81    
  28    28.18       28.17       28.16       28.15       28.13       28.11       28.08       28.04       28.00       27.95    
        27.90       27.85       27.78       27.71       27.64       27.56       27.47       27.37       27.27       27.16    
        27.04       26.92       26.78       26.64       26.48       26.32       26.16       26.01       25.88       25.81    
  29    28.18       28.17       28.16       28.15       28.13       28.11       28.08       28.04       28.00       27.95    
        27.90       27.85       27.78       27.71       27.64       27.56       27.47       27.37       27.27       27.16    
        27.04       26.92       26.78       26.64       26.48       26.32       26.16       26.01       25.88       25.81    
  30    28.18       28.17       28.16       28.15       28.13       28.11       28.08       28.04       28.00       27.95    
        27.90       27.85       27.78       27.71       27.64       27.56       27.47       27.37       27.27       27.16    
        27.04       26.92       26.78       26.64       26.48       26.32       26.16       26.01       25.88       25.81    

 HEAD WILL BE SAVED ON UNIT 1017 AT END OF TIME STEP    1, STRESS PERIOD   17



         TIME SUMMARY AT END OF TIME STEP    1 IN STRESS PERIOD   17
                    SECONDS     MINUTES      HOURS       DAYS        YEARS
                    -----------------------------------------------------------
   TIME STEP LENGTH 2.59200E+05  4320.0      72.000      3.0000     8.21355E-03
 STRESS PERIOD TIME 2.59200E+05  4320.0      72.000      3.0000     8.21355E-03
         TOTAL TIME 3.92256E+07 6.53760E+05  10896.      454.00      1.2430    
 UBDSV1 SAVING           STO-SS ON UNIT   1016 AT TIME STEP      2, STRESS PERIOD     17
 UBDSV1 SAVING           STO-SY ON UNIT   1016 AT TIME STEP      2, STRESS PERIOD     17
 UBDSV1 SAVING     FLOW-JA-FACE ON UNIT   1016 AT TIME STEP      2, STRESS PERIOD     17
 UBDSV06 SAVING              RCH IN MODEL TEST_TRANS       PACKAGE TEST_TRANS      CONNECTED TO MODEL TEST_TRANS       PACKAGE RCHA             ON UNIT   1016 AT TIME STEP      2, STRESS PERIOD     17
 UBDSV06 SAVING              CHD IN MODEL TEST_TRANS       PACKAGE TEST_TRANS      CONNECTED TO MODEL TEST_TRANS       PACKAGE CHD              ON UNIT   1016 AT TIME STEP      2, STRESS PERIOD     17

 HEAD WILL BE SAVED ON UNIT 1017 AT END OF TIME STEP    2, STRESS PERIOD   17
 UBDSV1 SAVING           STO-SS ON UNIT   1016 AT TIME STEP      3, STRESS PERIOD     17
 UBDSV1 SAVING           STO-SY ON UNIT   1016 AT TIME STEP      3, STRESS PERIOD     17
 UBDSV1 SAVING     FLOW-JA-FACE ON UNIT   1016 AT TIME STEP      3, STRESS PERIOD     17
 UBDSV06 SAVING              RCH IN MODEL TEST_TRANS       PACKAGE TEST_TRANS      CONNECTED TO MODEL TEST_TRANS       PACKAGE RCHA             ON UNIT   1016 AT TIME STEP      3, STRESS PERIOD     17
 UBDSV06 SAVING              CHD IN MODEL TEST_TRANS       PACKAGE TEST_TRANS      CONNECTED TO MODEL TEST_TRANS       PACKAGE CHD              ON UNIT   1016 AT TIME STEP      3, STRESS PERIOD     17

 HEAD WILL BE SAVED ON UNIT 1017 AT END OF TIME STEP    3, STRESS PERIOD   17
 UBDSV1 SAVING           STO-SS ON UNIT   1016 AT TIME STEP      4, STRESS PERIOD     17
 UBDSV1 SAVING           STO-SY ON UNIT   1016 AT TIME STEP      4, STRESS PERIOD     17
 UBDSV1 SAVING     FLOW-JA-FACE ON UNIT   1016 AT TIME STEP      4, STRESS PERIOD     17
 UBDSV06 SAVING              RCH IN MODEL TEST_TRANS       PACKAGE TEST_TRANS      CONNECTED TO MODEL TEST_TRANS       PACKAGE RCHA             ON UNIT   1016 AT TIME STEP      4, STRESS PERIOD     17
 UBDSV06 SAVING              CHD IN MODEL TEST_TRANS       PACKAGE TEST_TRANS      CONNECTED TO MODEL TEST_TRANS       PACKAGE CHD              ON UNIT   1016 AT TIME STEP      4, STRESS PERIOD     17

 HEAD WILL BE SAVED ON UNIT 1017 AT END OF TIME STEP    4, STRESS PERIOD   17
 UBDSV1 SAVING           STO-SS ON UNIT   1016 AT TIME STEP      5, STRESS PERIOD     17
 UBDSV1 SAVING           STO-SY ON UNIT   1016 AT TIME STEP      5, STRESS PERIOD     17
 UBDSV1 SAVING     FLOW-JA-FACE ON UNIT   1016 AT TIME STEP      5, STRESS PERIOD     17
 UBDSV06 SAVING              RCH IN MODEL TEST_TRANS       PACKAGE TEST_TRANS      CONNECTED TO MODEL TEST_TRANS       PACKAGE RCHA             ON UNIT   1016 AT TIME STEP      5, STRESS PERIOD     17
 UBDSV06 SAVING              CHD IN MODEL TEST_TRANS       PACKAGE TEST_TRANS      CONNECTED TO MODEL TEST_TRANS       PACKAGE CHD              ON UNIT   1016 AT TIME STEP      5, STRESS PERIOD     17

 HEAD WILL BE SAVED ON UNIT 1017 AT END OF TIME STEP    5, STRESS PERIOD   17
 UBDSV1 SAVING           STO-SS ON UNIT   1016 AT TIME STEP      6, STRESS PERIOD     17
 UBDSV1 SAVING           STO-SY ON UNIT   1016 AT TIME STEP      6, STRESS PERIOD     17
 UBDSV1 SAVING     FLOW-JA-FACE ON UNIT   1016 AT TIME STEP      6, STRESS PERIOD     17
 UBDSV06 SAVING              RCH IN MODEL TEST_TRANS       PACKAGE TEST_TRANS      CONNECTED TO MODEL TEST_TRANS       PACKAGE RCHA             ON UNIT   1016 AT TIME STEP      6, STRESS PERIOD     17
 UBDSV06 SAVING              CHD IN MODEL TEST_TRANS       PACKAGE TEST_TRANS      CONNECTED TO MODEL TEST_TRANS       PACKAGE CHD              ON UNIT   1016 AT TIME STEP      6, STRESS PERIOD     17

 HEAD WILL BE SAVED ON UNIT 1017 AT END OF TIME STEP    6, STRESS PERIOD   17
 UBDSV1 SAVING           STO-SS ON UNIT   1016 AT TIME STEP      7, STRESS PERIOD     17
 UBDSV1 SAVING           STO-SY ON UNIT   1016 AT TIME STEP      7, STRESS PERIOD     17
 UBDSV1 SAVING     FLOW-JA-FACE ON UNIT   1016 AT TIME STEP      7, STRESS PERIOD     17
 UBDSV06 SAVING              RCH IN MODEL TEST_TRANS       PACKAGE TEST_TRANS      CONNECTED TO MODEL TEST_TRANS       PACKAGE RCHA             ON UNIT   1016 AT TIME STEP      7, STRESS PERIOD     17
 UBDSV06 SAVING              CHD IN MODEL TEST_TRANS       PACKAGE TEST_TRANS      CONNECTED TO MODEL TEST_TRANS       PACKAGE CHD              ON UNIT   1016 AT TIME STEP      7, STRESS PERIOD     17

 HEAD WILL BE SAVED ON UNIT 1017 AT END OF TIME STEP    7, STRESS PERIOD   17
 UBDSV1 SAVING           STO-SS ON UNIT   1016 AT TIME STEP      8, STRESS PERIOD     17
 UBDSV1 SAVING           STO-SY ON UNIT   1016 AT TIME STEP      8, STRESS PERIOD     17
 UBDSV1 SAVING     FLOW-JA-FACE ON UNIT   1016 AT TIME STEP      8, STRESS PERIOD     17
 UBDSV06 SAVING              RCH IN MODEL TEST_TRANS       PACKAGE TEST_TRANS      CONNECTED TO MODEL TEST_TRANS       PACKAGE RCHA             ON UNIT   1016 AT TIME STEP      8, STRESS PERIOD     17
 UBDSV06 SAVING              CHD IN MODEL TEST_TRANS       PACKAGE TEST_TRANS      CONNECTED TO MODEL TEST_TRANS       PACKAGE CHD              ON UNIT   1016 AT TIME STEP      8, STRESS PERIOD     17

 HEAD WILL BE SAVED ON UNIT 1017 AT END OF TIME STEP    8, STRESS PERIOD   17
 UBDSV1 SAVING           STO-SS ON UNIT   1016 AT TIME STEP      9, STRESS PERIOD     17
 UBDSV1 SAVING           STO-SY ON UNIT   1016 AT TIME STEP      9, STRESS PERIOD     17
 UBDSV1 SAVING     FLOW-JA-FACE ON UNIT   1016 AT TIME STEP      9, STRESS PERIOD     17
 UBDSV06 SAVING              RCH IN MODEL TEST_TRANS       PACKAGE TEST_TRANS      CONNECTED TO MODEL TEST_TRANS       PACKAGE RCHA             ON UNIT   1016 AT TIME STEP      9, STRESS PERIOD     17
 UBDSV06 SAVING              CHD IN MODEL TEST_TRANS       PACKAGE TEST_TRANS      CONNECTED TO MODEL TEST_TRANS       PACKAGE CHD              ON UNIT   1016 AT TIME STEP      9, STRESS PERIOD     17

 HEAD WILL BE SAVED ON UNIT 1017 AT END OF TIME STEP    9, STRESS PERIOD   17
 UBDSV1 SAVING           STO-SS ON UNIT   1016 AT TIME STEP     10, STRESS PERIOD     17
 UBDSV1 SAVING           STO-SY ON UNIT   1016 AT TIME STEP     10, STRESS PERIOD     17
 UBDSV1 SAVING     FLOW-JA-FACE ON UNIT   1016 AT TIME STEP     10, STRESS PERIOD     17
 UBDSV06 SAVING              RCH IN MODEL TEST_TRANS       PACKAGE TEST_TRANS      CONNECTED TO MODEL TEST_TRANS       PACKAGE RCHA             ON UNIT   1016 AT TIME STEP     10, STRESS PERIOD     17
 UBDSV06 SAVING              CHD IN MODEL TEST_TRANS       PACKAGE TEST_TRANS      CONNECTED TO MODEL TEST_TRANS       PACKAGE CHD              ON UNIT   1016 AT TIME STEP     10, STRESS PERIOD     17
1
  HEAD IN LAYER   1 AT END OF TIME STEP  10 IN STRESS PERIOD   17
  ---------------------------------------------------------------------------

            1           2           3           4           5           6           7           8           9          10
           11          12          13          14          15          16          17          18          19          20
           21          22          23          24          25          26          27          28          29          30
 ........................................................................................................................
   1    28.06       28.06       28.05       28.03       28.02       27.99       27.96       27.93       27.89       27.85    
        27.81       27.75       27.70       27.64       27.57       27.50       27.42       27.34       27.25       27.16    
        27.06       26.95       26.84       26.72       26.60       26.46       26.32       26.16       26.00       25.81    
   2    28.06       28.06       28.05       28.03       28.02       27.99       27.96       27.93       27.89       27.85    
        27.81       27.75       27.70       27.64       27.57       27.50       27.42       27.34       27.25       27.16    
        27.06       26.95       26.84       26.72       26.60       26.46       26.32       26.16       26.00       25.81    
   3    28.06       28.06       28.05       28.03       28.02       27.99       27.96       27.93       27.89       27.85    
        27.81       27.75       27.70       27.64       27.57       27.50       27.42       27.34       27.25       27.16    
        27.06       26.95       26.84       26.72       26.60       26.46       26.32       26.16       26.00       25.81    
   4    28.06       28.06       28.05       28.03       28.02       27.99       27.96       27.93       27.89       27.85    
        27.81       27.75       27.70       27.64       27.57       27.50       27.42       27.34       27.25       27.16    
        27.06       26.95       26.84       26.72       26.60       26.46       26.32       26.16       26.00       25.81    
   5    28.06       28.06       28.05       28.03       28.02       27.99       27.96       27.93       27.89       27.85    
        27.81       27.75       27.70       27.64       27.57       27.50       27.42       27.34       27.25       27.16    
        27.06       26.95       26.84       26.72       26.60       26.46       26.32       26.16       26.00       25.81    
   6    28.06       28.06       28.05       28.03       28.02       27.99       27.96       27.93       27.89       27.85    
        27.81       27.75       27.70       27.64       27.57       27.50       27.42       27.34       27.25       27.16    
        27.06       26.95       26.84       26.72       26.60       26.46       26.32       26.16       26.00       25.81    
   7    28.06       28.06       28.05       28.03       28.02       27.99       27.96       27.93       27.89       27.85    
        27.81       27.75       27.70       27.64       27.57       27.50       27.42       27.34       27.25       27.16    
        27.06       26.95       26.84       26.72       26.60       26.46       26.32       26.16       26.00       25.81    
   8    28.06       28.06       28.05       28.03       28.02       27.99       27.96       27.93       27.89       27.85    
        27.81       27.75       27.70       27.64       27.57       27.50       27.42       27.34       27.25       27.16    
        27.06       26.95       26.84       26.72       26.60       26.46       26.32       26.16       26.00       25.81    
   9    28.06       28.06       28.05       28.03       28.02       27.99       27.96       27.93       27.89       27.85    
        27.81       27.75       27.70       27.64       27.57       27.50       27.42       27.34       27.25       27.16    
        27.06       26.95       26.84       26.72       26.60       26.46       26.32       26.16       26.00       25.81    
  10    28.06       28.06       28.05       28.03       28.02       27.99       27.96       27.93       27.89       27.85    
        27.81       27.75       27.70       27.64       27.57       27.50       27.42       27.34       27.25       27.16    
        27.06       26.95       26.84       26.72       26.60       26.46       26.32       26.16       26.00       25.81    
  11    28.06       28.06       28.05       28.03       28.02       27.99       27.96       27.93       27.89       27.85    
        27.81       27.75       27.70       27.64       27.57       27.50       27.42       27.34       27.25       27.16    
        27.06       26.95       26.84       26.72       26.60       26.46       26.32       26.16       26.00       25.81    
  12    28.06       28.06       28.05       28.03       28.02       27.99       27.96       27.93       27.89       27.85    
        27.81       27.75       27.70       27.64       27.57       27.50       27.42       27.34       27.25       27.16    
        27.06       26.95       26.84       26.72       26.60       26.46       26.32       26.16       26.00       25.81    
  13    28.06       28.06       28.05       28.03       28.02       27.99       27.96       27.93       27.89       27.85    
        27.81       27.75       27.70       27.64       27.57       27.50       27.42       27.34       27.25       27.16    
        27.06       26.95       26.84       26.72       26.60       26.46       26.32       26.16       26.00       25.81    
  14    28.06       28.06       28.05       28.03       28.02       27.99       27.96       27.93       27.89       27.85    
        27.81       27.75       27.70       27.64       27.57       27.50       27.42       27.34       27.25       27.16    
        27.06       26.95       26.84       26.72       26.60       26.46       26.32       26.16       26.00       25.81    
  15    28.06       28.06       28.05       28.03       28.02       27.99       27.96       27.93       27.89       27.85    
        27.81       27.75       27.70       27.64       27.57       27.50       27.42       27.34       27.25       27.16    
        27.06       26.95       26.84       26.72       26.60       26.46       26.32       26.16       26.00       25.81    
  16    28.06       28.06       28.05       28.03       28.02       27.99       27.96       27.93       27.89       27.85    
        27.81       27.75       27.70       27.64       27.57       27.50       27.42       27.34       27.25       27.16    
        27.06       26.95       26.84       26.72       26.60       26.46       26.32       26.16       26.00       25.81    
  17    28.06       28.06       28.05       28.03       28.02       27.99       27.96       27.93       27.89       27.85    
        27.81       27.75       27.70       27.64       27.57       27.50       27.42       27.34       27.25       27.16    
        27.06       26.95       26.84       26.72       26.60       26.46       26.32       26.16       26.00       25.81    
  18    28.06       28.06       28.05       28.03       28.02       27.99       27.96       27.93       27.89       27.85    
        27.81       27.75       27.70       27.64       27.57       27.50       27.42       27.34       27.25       27.16    
        27.06       26.95       26.84       26.72       26.60       26.46       26.32       26.16       26.00       25.81    
  19    28.06       28.06       28.05       28.03       28.02       27.99       27.96       27.93       27.89       27.85    
        27.81       27.75       27.70       27.64       27.57       27.50       27.42       27.34       27.25       27.16    
        27.06       26.95       26.84       26.72       26.60       26.46       26.32       26.16       26.00       25.81    
  20    28.06       28.06       28.05       28.03       28.02       27.99       27.96       27.93       27.89       27.85    
        27.81       27.75       27.70       27.64       27.57       27.50       27.42       27.34       27.25       27.16    
        27.06       26.95       26.84       26.72       26.60       26.46       26.32       26.16       26.00       25.81    
  21    28.06       28.06       28.05       28.03       28.02       27.99       27.96       27.93       27.89       27.85    
        27.81       27.75       27.70       27.64       27.57       27.50       27.42       27.34       27.25       27.16    
        27.06       26.95       26.84       26.72       26.60       26.46       26.32       26.16       26.00       25.81    
  22    28.06       28.06       28.05       28.03       28.02       27.99       27.96       27.93       27.89       27.85    
        27.81       27.75       27.70       27.64       27.57       27.50       27.42       27.34       27.25       27.16    
        27.06       26.95       26.84       26.72       26.60       26.46       26.32       26.16       26.00       25.81    
  23    28.06       28.06       28.05       28.03       28.02       27.99       27.96       27.93       27.89       27.85    
        27.81       27.75       27.70       27.64       27.57       27.50       27.42       27.34       27.25       27.16    
        27.06       26.95       26.84       26.72       26.60       26.46       26.32       26.16       26.00       25.81    
  24    28.06       28.06       28.05       28.03       28.02       27.99       27.96       27.93       27.89       27.85    
        27.81       27.75       27.70       27.64       27.57       27.50       27.42       27.34       27.25       27.16    
        27.06       26.95       26.84       26.72       26.60       26.46       26.32       26.16       26.00       25.81    
  25    28.06       28.06       28.05       28.03       28.02       27.99       27.96       27.93       27.89       27.85    
        27.81       27.75       27.70       27.64       27.57       27.50       27.42       27.34       27.25       27.16    
        27.06       26.95       26.84       26.72       26.60       26.46       26.32       26.16       26.00       25.81    
  26    28.06       28.06       28.05       28.03       28.02       27.99       27.96       27.93       27.89       27.85    
        27.81       27.75       27.70       27.64       27.57       27.50       27.42       27.34       27.25       27.16    
        27.06       26.95       26.84       26.72       26.60       26.46       26.32       26.16       26.00       25.81    
  27    28.06       28.06       28.05       28.03       28.02       27.99       27.96       27.93       27.89       27.85    
        27.81       27.75       27.70       27.64       27.57       27.50       27.42       27.34       27.25       27.16    
        27.06       26.95       26.84       26.72       26.60       26.46       26.32       26.16       26.00       25.81    
  28    28.06       28.06       28.05       28.03       28.02       27.99       27.96       27.93       27.89       27.85    
        27.81       27.75       27.70       27.64       27.57       27.50       27.42       27.34       27.25       27.16    
        27.06       26.95       26.84       26.72       26.60       26.46       26.32       26.16       26.00       25.81    
  29    28.06       28.06       28.05       28.03       28.02       27.99       27.96       27.93       27.89       27.85    
        27.81       27.75       27.70       27.64       27.57       27.50       27.42       27.34       27.25       27.16    
        27.06       26.95       26.84       26.72       26.60       26.46       26.32       26.16       26.00       25.81    
  30    28.06       28.06       28.05       28.03       28.02       27.99       27.96       27.93       27.89       27.85    
        27.81       27.75       27.70       27.64       27.57       27.50       27.42       27.34       27.25       27.16    
        27.06       26.95       26.84       26.72       26.60       26.46       26.32       26.16       26.00       25.81    

 HEAD WILL BE SAVED ON UNIT 1017 AT END OF TIME STEP   10, STRESS PERIOD   17


  VOLUME BUDGET FOR ENTIRE MODEL AT END OF TIME STEP   10, STRESS PERIOD  17
  ---------------------------------------------------------------------------------------------------

     CUMULATIVE VOLUME      L**3       RATES FOR THIS TIME STEP      L**3/T          PACKAGE NAME    
     ------------------                 ------------------------                     ----------------

           IN:                                      IN:
           ---                                      ---
              STO-SS =          27.2455                STO-SS =       5.1860E-02     STORAGE         
              STO-SY =       17047.5109                STO-SY =          31.6707     STORAGE         
                 RCH =       82471.2690                   RCH =         107.2606     RCHA            
                 CHD =           0.0000                   CHD =           0.0000     CHD             

            TOTAL IN =       99546.0253              TOTAL IN =         138.9831

          OUT:                                     OUT:
          ----                                     ----
              STO-SS =          17.3935                STO-SS =       3.7200E-03     STORAGE         
              STO-SY =       11155.1855                STO-SY =           2.4810     STORAGE         
                 RCH =           0.0000                   RCH =           0.0000     RCHA            
                 CHD =       88372.8616                   CHD =         136.5072     CHD             

           TOTAL OUT =       99545.4406             TOTAL OUT =         138.9920

            IN - OUT =           0.5848              IN - OUT =      -8.8751E-03

 PERCENT DISCREPANCY =           0.00     PERCENT DISCREPANCY =          -0.01




         TIME SUMMARY AT END OF TIME STEP   10 IN STRESS PERIOD   17
                    SECONDS     MINUTES      HOURS       DAYS        YEARS
                    -----------------------------------------------------------
   TIME STEP LENGTH 2.59200E+05  4320.0      72.000      3.0000     8.21355E-03
 STRESS PERIOD TIME 2.59200E+06  43200.      720.00      30.000     8.21355E-02
         TOTAL TIME 4.15584E+07 6.92640E+05  11544.      481.00      1.3169    

 OUTPUT CONTROL FOR STRESS PERIOD 18 IS REPEATED USING SETTINGS FROM A PREVIOUS STRESS PERIOD.


 STRESS PERIOD 18 IS TRANSIENT


                 RECHARGE =  0.8219178E-03
 UBDSV1 SAVING           STO-SS ON UNIT   1016 AT TIME STEP      1, STRESS PERIOD     18
 UBDSV1 SAVING           STO-SY ON UNIT   1016 AT TIME STEP      1, STRESS PERIOD     18
 UBDSV1 SAVING     FLOW-JA-FACE ON UNIT   1016 AT TIME STEP      1, STRESS PERIOD     18
 UBDSV06 SAVING              RCH IN MODEL TEST_TRANS       PACKAGE TEST_TRANS      CONNECTED TO MODEL TEST_TRANS       PACKAGE RCHA             ON UNIT   1016 AT TIME STEP      1, STRESS PERIOD     18
 UBDSV06 SAVING              CHD IN MODEL TEST_TRANS       PACKAGE TEST_TRANS      CONNECTED TO MODEL TEST_TRANS       PACKAGE CHD              ON UNIT   1016 AT TIME STEP      1, STRESS PERIOD     18
1
  HEAD IN LAYER   1 AT END OF TIME STEP   1 IN STRESS PERIOD   18
  ---------------------------------------------------------------------------

            1           2           3           4           5           6           7           8           9          10
           11          12          13          14          15          16          17          18          19          20
           21          22          23          24          25          26          27          28          29          30
 ........................................................................................................................
   1    28.04       28.04       28.03       28.02       28.00       27.98       27.95       27.92       27.88       27.84    
        27.79       27.74       27.68       27.62       27.56       27.49       27.41       27.33       27.24       27.15    
        27.05       26.95       26.84       26.72       26.60       26.46       26.32       26.18       26.02       25.87    
   2    28.04       28.04       28.03       28.02       28.00       27.98       27.95       27.92       27.88       27.84    
        27.79       27.74       27.68       27.62       27.56       27.49       27.41       27.33       27.24       27.15    
        27.05       26.95       26.84       26.72       26.60       26.46       26.32       26.18       26.02       25.87    
   3    28.04       28.04       28.03       28.02       28.00       27.98       27.95       27.92       27.88       27.84    
        27.79       27.74       27.68       27.62       27.56       27.49       27.41       27.33       27.24       27.15    
        27.05       26.95       26.84       26.72       26.60       26.46       26.32       26.18       26.02       25.87    
   4    28.04       28.04       28.03       28.02       28.00       27.98       27.95       27.92       27.88       27.84    
        27.79       27.74       27.68       27.62       27.56       27.49       27.41       27.33       27.24       27.15    
        27.05       26.95       26.84       26.72       26.60       26.46       26.32       26.18       26.02       25.87    
   5    28.04       28.04       28.03       28.02       28.00       27.98       27.95       27.92       27.88       27.84    
        27.79       27.74       27.68       27.62       27.56       27.49       27.41       27.33       27.24       27.15    
        27.05       26.95       26.84       26.72       26.60       26.46       26.32       26.18       26.02       25.87    
   6    28.04       28.04       28.03       28.02       28.00       27.98       27.95       27.92       27.88       27.84    
        27.79       27.74       27.68       27.62       27.56       27.49       27.41       27.33       27.24       27.15    
        27.05       26.95       26.84       26.72       26.60       26.46       26.32       26.18       26.02       25.87    
   7    28.04       28.04       28.03       28.02       28.00       27.98       27.95       27.92       27.88       27.84    
        27.79       27.74       27.68       27.62       27.56       27.49       27.41       27.33       27.24       27.15    
        27.05       26.95       26.84       26.72       26.60       26.46       26.32       26.18       26.02       25.87    
   8    28.04       28.04       28.03       28.02       28.00       27.98       27.95       27.92       27.88       27.84    
        27.79       27.74       27.68       27.62       27.56       27.49       27.41       27.33       27.24       27.15    
        27.05       26.95       26.84       26.72       26.60       26.46       26.32       26.18       26.02       25.87    
   9    28.04       28.04       28.03       28.02       28.00       27.98       27.95       27.92       27.88       27.84    
        27.79       27.74       27.68       27.62       27.56       27.49       27.41       27.33       27.24       27.15    
        27.05       26.95       26.84       26.72       26.60       26.46       26.32       26.18       26.02       25.87    
  10    28.04       28.04       28.03       28.02       28.00       27.98       27.95       27.92       27.88       27.84    
        27.79       27.74       27.68       27.62       27.56       27.49       27.41       27.33       27.24       27.15    
        27.05       26.95       26.84       26.72       26.60       26.46       26.32       26.18       26.02       25.87    
  11    28.04       28.04       28.03       28.02       28.00       27.98       27.95       27.92       27.88       27.84    
        27.79       27.74       27.68       27.62       27.56       27.49       27.41       27.33       27.24       27.15    
        27.05       26.95       26.84       26.72       26.60       26.46       26.32       26.18       26.02       25.87    
  12    28.04       28.04       28.03       28.02       28.00       27.98       27.95       27.92       27.88       27.84    
        27.79       27.74       27.68       27.62       27.56       27.49       27.41       27.33       27.24       27.15    
        27.05       26.95       26.84       26.72       26.60       26.46       26.32       26.18       26.02       25.87    
  13    28.04       28.04       28.03       28.02       28.00       27.98       27.95       27.92       27.88       27.84    
        27.79       27.74       27.68       27.62       27.56       27.49       27.41       27.33       27.24       27.15    
        27.05       26.95       26.84       26.72       26.60       26.46       26.32       26.18       26.02       25.87    
  14    28.04       28.04       28.03       28.02       28.00       27.98       27.95       27.92       27.88       27.84    
        27.79       27.74       27.68       27.62       27.56       27.49       27.41       27.33       27.24       27.15    
        27.05       26.95       26.84       26.72       26.60       26.46       26.32       26.18       26.02       25.87    
  15    28.04       28.04       28.03       28.02       28.00       27.98       27.95       27.92       27.88       27.84    
        27.79       27.74       27.68       27.62       27.56       27.49       27.41       27.33       27.24       27.15    
        27.05       26.95       26.84       26.72       26.60       26.46       26.32       26.18       26.02       25.87    
  16    28.04       28.04       28.03       28.02       28.00       27.98       27.95       27.92       27.88       27.84    
        27.79       27.74       27.68       27.62       27.56       27.49       27.41       27.33       27.24       27.15    
        27.05       26.95       26.84       26.72       26.60       26.46       26.32       26.18       26.02       25.87    
  17    28.04       28.04       28.03       28.02       28.00       27.98       27.95       27.92       27.88       27.84    
        27.79       27.74       27.68       27.62       27.56       27.49       27.41       27.33       27.24       27.15    
        27.05       26.95       26.84       26.72       26.60       26.46       26.32       26.18       26.02       25.87    
  18    28.04       28.04       28.03       28.02       28.00       27.98       27.95       27.92       27.88       27.84    
        27.79       27.74       27.68       27.62       27.56       27.49       27.41       27.33       27.24       27.15    
        27.05       26.95       26.84       26.72       26.60       26.46       26.32       26.18       26.02       25.87    
  19    28.04       28.04       28.03       28.02       28.00       27.98       27.95       27.92       27.88       27.84    
        27.79       27.74       27.68       27.62       27.56       27.49       27.41       27.33       27.24       27.15    
        27.05       26.95       26.84       26.72       26.60       26.46       26.32       26.18       26.02       25.87    
  20    28.04       28.04       28.03       28.02       28.00       27.98       27.95       27.92       27.88       27.84    
        27.79       27.74       27.68       27.62       27.56       27.49       27.41       27.33       27.24       27.15    
        27.05       26.95       26.84       26.72       26.60       26.46       26.32       26.18       26.02       25.87    
  21    28.04       28.04       28.03       28.02       28.00       27.98       27.95       27.92       27.88       27.84    
        27.79       27.74       27.68       27.62       27.56       27.49       27.41       27.33       27.24       27.15    
        27.05       26.95       26.84       26.72       26.60       26.46       26.32       26.18       26.02       25.87    
  22    28.04       28.04       28.03       28.02       28.00       27.98       27.95       27.92       27.88       27.84    
        27.79       27.74       27.68       27.62       27.56       27.49       27.41       27.33       27.24       27.15    
        27.05       26.95       26.84       26.72       26.60       26.46       26.32       26.18       26.02       25.87    
  23    28.04       28.04       28.03       28.02       28.00       27.98       27.95       27.92       27.88       27.84    
        27.79       27.74       27.68       27.62       27.56       27.49       27.41       27.33       27.24       27.15    
        27.05       26.95       26.84       26.72       26.60       26.46       26.32       26.18       26.02       25.87    
  24    28.04       28.04       28.03       28.02       28.00       27.98       27.95       27.92       27.88       27.84    
        27.79       27.74       27.68       27.62       27.56       27.49       27.41       27.33       27.24       27.15    
        27.05       26.95       26.84       26.72       26.60       26.46       26.32       26.18       26.02       25.87    
  25    28.04       28.04       28.03       28.02       28.00       27.98       27.95       27.92       27.88       27.84    
        27.79       27.74       27.68       27.62       27.56       27.49       27.41       27.33       27.24       27.15    
        27.05       26.95       26.84       26.72       26.60       26.46       26.32       26.18       26.02       25.87    
  26    28.04       28.04       28.03       28.02       28.00       27.98       27.95       27.92       27.88       27.84    
        27.79       27.74       27.68       27.62       27.56       27.49       27.41       27.33       27.24       27.15    
        27.05       26.95       26.84       26.72       26.60       26.46       26.32       26.18       26.02       25.87    
  27    28.04       28.04       28.03       28.02       28.00       27.98       27.95       27.92       27.88       27.84    
        27.79       27.74       27.68       27.62       27.56       27.49       27.41       27.33       27.24       27.15    
        27.05       26.95       26.84       26.72       26.60       26.46       26.32       26.18       26.02       25.87    
  28    28.04       28.04       28.03       28.02       28.00       27.98       27.95       27.92       27.88       27.84    
        27.79       27.74       27.68       27.62       27.56       27.49       27.41       27.33       27.24       27.15    
        27.05       26.95       26.84       26.72       26.60       26.46       26.32       26.18       26.02       25.87    
  29    28.04       28.04       28.03       28.02       28.00       27.98       27.95       27.92       27.88       27.84    
        27.79       27.74       27.68       27.62       27.56       27.49       27.41       27.33       27.24       27.15    
        27.05       26.95       26.84       26.72       26.60       26.46       26.32       26.18       26.02       25.87    
  30    28.04       28.04       28.03       28.02       28.00       27.98       27.95       27.92       27.88       27.84    
        27.79       27.74       27.68       27.62       27.56       27.49       27.41       27.33       27.24       27.15    
        27.05       26.95       26.84       26.72       26.60       26.46       26.32       26.18       26.02       25.87    

 HEAD WILL BE SAVED ON UNIT 1017 AT END OF TIME STEP    1, STRESS PERIOD   18



         TIME SUMMARY AT END OF TIME STEP    1 IN STRESS PERIOD   18
                    SECONDS     MINUTES      HOURS       DAYS        YEARS
                    -----------------------------------------------------------
   TIME STEP LENGTH 2.59200E+05  4320.0      72.000      3.0000     8.21355E-03
 STRESS PERIOD TIME 2.59200E+05  4320.0      72.000      3.0000     8.21355E-03
         TOTAL TIME 4.18176E+07 6.96960E+05  11616.      484.00      1.3251    
 UBDSV1 SAVING           STO-SS ON UNIT   1016 AT TIME STEP      2, STRESS PERIOD     18
 UBDSV1 SAVING           STO-SY ON UNIT   1016 AT TIME STEP      2, STRESS PERIOD     18
 UBDSV1 SAVING     FLOW-JA-FACE ON UNIT   1016 AT TIME STEP      2, STRESS PERIOD     18
 UBDSV06 SAVING              RCH IN MODEL TEST_TRANS       PACKAGE TEST_TRANS      CONNECTED TO MODEL TEST_TRANS       PACKAGE RCHA             ON UNIT   1016 AT TIME STEP      2, STRESS PERIOD     18
 UBDSV06 SAVING              CHD IN MODEL TEST_TRANS       PACKAGE TEST_TRANS      CONNECTED TO MODEL TEST_TRANS       PACKAGE CHD              ON UNIT   1016 AT TIME STEP      2, STRESS PERIOD     18

 HEAD WILL BE SAVED ON UNIT 1017 AT END OF TIME STEP    2, STRESS PERIOD   18
 UBDSV1 SAVING           STO-SS ON UNIT   1016 AT TIME STEP      3, STRESS PERIOD     18
 UBDSV1 SAVING           STO-SY ON UNIT   1016 AT TIME STEP      3, STRESS PERIOD     18
 UBDSV1 SAVING     FLOW-JA-FACE ON UNIT   1016 AT TIME STEP      3, STRESS PERIOD     18
 UBDSV06 SAVING              RCH IN MODEL TEST_TRANS       PACKAGE TEST_TRANS      CONNECTED TO MODEL TEST_TRANS       PACKAGE RCHA             ON UNIT   1016 AT TIME STEP      3, STRESS PERIOD     18
 UBDSV06 SAVING              CHD IN MODEL TEST_TRANS       PACKAGE TEST_TRANS      CONNECTED TO MODEL TEST_TRANS       PACKAGE CHD              ON UNIT   1016 AT TIME STEP      3, STRESS PERIOD     18

 HEAD WILL BE SAVED ON UNIT 1017 AT END OF TIME STEP    3, STRESS PERIOD   18
 UBDSV1 SAVING           STO-SS ON UNIT   1016 AT TIME STEP      4, STRESS PERIOD     18
 UBDSV1 SAVING           STO-SY ON UNIT   1016 AT TIME STEP      4, STRESS PERIOD     18
 UBDSV1 SAVING     FLOW-JA-FACE ON UNIT   1016 AT TIME STEP      4, STRESS PERIOD     18
 UBDSV06 SAVING              RCH IN MODEL TEST_TRANS       PACKAGE TEST_TRANS      CONNECTED TO MODEL TEST_TRANS       PACKAGE RCHA             ON UNIT   1016 AT TIME STEP      4, STRESS PERIOD     18
 UBDSV06 SAVING              CHD IN MODEL TEST_TRANS       PACKAGE TEST_TRANS      CONNECTED TO MODEL TEST_TRANS       PACKAGE CHD              ON UNIT   1016 AT TIME STEP      4, STRESS PERIOD     18

 HEAD WILL BE SAVED ON UNIT 1017 AT END OF TIME STEP    4, STRESS PERIOD   18
 UBDSV1 SAVING           STO-SS ON UNIT   1016 AT TIME STEP      5, STRESS PERIOD     18
 UBDSV1 SAVING           STO-SY ON UNIT   1016 AT TIME STEP      5, STRESS PERIOD     18
 UBDSV1 SAVING     FLOW-JA-FACE ON UNIT   1016 AT TIME STEP      5, STRESS PERIOD     18
 UBDSV06 SAVING              RCH IN MODEL TEST_TRANS       PACKAGE TEST_TRANS      CONNECTED TO MODEL TEST_TRANS       PACKAGE RCHA             ON UNIT   1016 AT TIME STEP      5, STRESS PERIOD     18
 UBDSV06 SAVING              CHD IN MODEL TEST_TRANS       PACKAGE TEST_TRANS      CONNECTED TO MODEL TEST_TRANS       PACKAGE CHD              ON UNIT   1016 AT TIME STEP      5, STRESS PERIOD     18

 HEAD WILL BE SAVED ON UNIT 1017 AT END OF TIME STEP    5, STRESS PERIOD   18
 UBDSV1 SAVING           STO-SS ON UNIT   1016 AT TIME STEP      6, STRESS PERIOD     18
 UBDSV1 SAVING           STO-SY ON UNIT   1016 AT TIME STEP      6, STRESS PERIOD     18
 UBDSV1 SAVING     FLOW-JA-FACE ON UNIT   1016 AT TIME STEP      6, STRESS PERIOD     18
 UBDSV06 SAVING              RCH IN MODEL TEST_TRANS       PACKAGE TEST_TRANS      CONNECTED TO MODEL TEST_TRANS       PACKAGE RCHA             ON UNIT   1016 AT TIME STEP      6, STRESS PERIOD     18
 UBDSV06 SAVING              CHD IN MODEL TEST_TRANS       PACKAGE TEST_TRANS      CONNECTED TO MODEL TEST_TRANS       PACKAGE CHD              ON UNIT   1016 AT TIME STEP      6, STRESS PERIOD     18

 HEAD WILL BE SAVED ON UNIT 1017 AT END OF TIME STEP    6, STRESS PERIOD   18
 UBDSV1 SAVING           STO-SS ON UNIT   1016 AT TIME STEP      7, STRESS PERIOD     18
 UBDSV1 SAVING           STO-SY ON UNIT   1016 AT TIME STEP      7, STRESS PERIOD     18
 UBDSV1 SAVING     FLOW-JA-FACE ON UNIT   1016 AT TIME STEP      7, STRESS PERIOD     18
 UBDSV06 SAVING              RCH IN MODEL TEST_TRANS       PACKAGE TEST_TRANS      CONNECTED TO MODEL TEST_TRANS       PACKAGE RCHA             ON UNIT   1016 AT TIME STEP      7, STRESS PERIOD     18
 UBDSV06 SAVING              CHD IN MODEL TEST_TRANS       PACKAGE TEST_TRANS      CONNECTED TO MODEL TEST_TRANS       PACKAGE CHD              ON UNIT   1016 AT TIME STEP      7, STRESS PERIOD     18

 HEAD WILL BE SAVED ON UNIT 1017 AT END OF TIME STEP    7, STRESS PERIOD   18
 UBDSV1 SAVING           STO-SS ON UNIT   1016 AT TIME STEP      8, STRESS PERIOD     18
 UBDSV1 SAVING           STO-SY ON UNIT   1016 AT TIME STEP      8, STRESS PERIOD     18
 UBDSV1 SAVING     FLOW-JA-FACE ON UNIT   1016 AT TIME STEP      8, STRESS PERIOD     18
 UBDSV06 SAVING              RCH IN MODEL TEST_TRANS       PACKAGE TEST_TRANS      CONNECTED TO MODEL TEST_TRANS       PACKAGE RCHA             ON UNIT   1016 AT TIME STEP      8, STRESS PERIOD     18
 UBDSV06 SAVING              CHD IN MODEL TEST_TRANS       PACKAGE TEST_TRANS      CONNECTED TO MODEL TEST_TRANS       PACKAGE CHD              ON UNIT   1016 AT TIME STEP      8, STRESS PERIOD     18

 HEAD WILL BE SAVED ON UNIT 1017 AT END OF TIME STEP    8, STRESS PERIOD   18
 UBDSV1 SAVING           STO-SS ON UNIT   1016 AT TIME STEP      9, STRESS PERIOD     18
 UBDSV1 SAVING           STO-SY ON UNIT   1016 AT TIME STEP      9, STRESS PERIOD     18
 UBDSV1 SAVING     FLOW-JA-FACE ON UNIT   1016 AT TIME STEP      9, STRESS PERIOD     18
 UBDSV06 SAVING              RCH IN MODEL TEST_TRANS       PACKAGE TEST_TRANS      CONNECTED TO MODEL TEST_TRANS       PACKAGE RCHA             ON UNIT   1016 AT TIME STEP      9, STRESS PERIOD     18
 UBDSV06 SAVING              CHD IN MODEL TEST_TRANS       PACKAGE TEST_TRANS      CONNECTED TO MODEL TEST_TRANS       PACKAGE CHD              ON UNIT   1016 AT TIME STEP      9, STRESS PERIOD     18

 HEAD WILL BE SAVED ON UNIT 1017 AT END OF TIME STEP    9, STRESS PERIOD   18
 UBDSV1 SAVING           STO-SS ON UNIT   1016 AT TIME STEP     10, STRESS PERIOD     18
 UBDSV1 SAVING           STO-SY ON UNIT   1016 AT TIME STEP     10, STRESS PERIOD     18
 UBDSV1 SAVING     FLOW-JA-FACE ON UNIT   1016 AT TIME STEP     10, STRESS PERIOD     18
 UBDSV06 SAVING              RCH IN MODEL TEST_TRANS       PACKAGE TEST_TRANS      CONNECTED TO MODEL TEST_TRANS       PACKAGE RCHA             ON UNIT   1016 AT TIME STEP     10, STRESS PERIOD     18
 UBDSV06 SAVING              CHD IN MODEL TEST_TRANS       PACKAGE TEST_TRANS      CONNECTED TO MODEL TEST_TRANS       PACKAGE CHD              ON UNIT   1016 AT TIME STEP     10, STRESS PERIOD     18
1
  HEAD IN LAYER   1 AT END OF TIME STEP  10 IN STRESS PERIOD   18
  ---------------------------------------------------------------------------

            1           2           3           4           5           6           7           8           9          10
           11          12          13          14          15          16          17          18          19          20
           21          22          23          24          25          26          27          28          29          30
 ........................................................................................................................
   1    27.91       27.90       27.89       27.88       27.86       27.84       27.82       27.79       27.76       27.72    
        27.68       27.63       27.58       27.52       27.46       27.40       27.33       27.25       27.17       27.09    
        27.00       26.90       26.80       26.69       26.58       26.45       26.32       26.18       26.03       25.87    
   2    27.91       27.90       27.89       27.88       27.86       27.84       27.82       27.79       27.76       27.72    
        27.68       27.63       27.58       27.52       27.46       27.40       27.33       27.25       27.17       27.09    
        27.00       26.90       26.80       26.69       26.58       26.45       26.32       26.18       26.03       25.87    
   3    27.91       27.90       27.89       27.88       27.86       27.84       27.82       27.79       27.76       27.72    
        27.68       27.63       27.58       27.52       27.46       27.40       27.33       27.25       27.17       27.09    
        27.00       26.90       26.80       26.69       26.58       26.45       26.32       26.18       26.03       25.87    
   4    27.91       27.90       27.89       27.88       27.86       27.84       27.82       27.79       27.76       27.72    
        27.68       27.63       27.58       27.52       27.46       27.40       27.33       27.25       27.17       27.09    
        27.00       26.90       26.80       26.69       26.58       26.45       26.32       26.18       26.03       25.87    
   5    27.91       27.90       27.89       27.88       27.86       27.84       27.82       27.79       27.76       27.72    
        27.68       27.63       27.58       27.52       27.46       27.40       27.33       27.25       27.17       27.09    
        27.00       26.90       26.80       26.69       26.58       26.45       26.32       26.18       26.03       25.87    
   6    27.91       27.90       27.89       27.88       27.86       27.84       27.82       27.79       27.76       27.72    
        27.68       27.63       27.58       27.52       27.46       27.40       27.33       27.25       27.17       27.09    
        27.00       26.90       26.80       26.69       26.58       26.45       26.32       26.18       26.03       25.87    
   7    27.91       27.90       27.89       27.88       27.86       27.84       27.82       27.79       27.76       27.72    
        27.68       27.63       27.58       27.52       27.46       27.40       27.33       27.25       27.17       27.09    
        27.00       26.90       26.80       26.69       26.58       26.45       26.32       26.18       26.03       25.87    
   8    27.91       27.90       27.89       27.88       27.86       27.84       27.82       27.79       27.76       27.72    
        27.68       27.63       27.58       27.52       27.46       27.40       27.33       27.25       27.17       27.09    
        27.00       26.90       26.80       26.69       26.58       26.45       26.32       26.18       26.03       25.87    
   9    27.91       27.90       27.89       27.88       27.86       27.84       27.82       27.79       27.76       27.72    
        27.68       27.63       27.58       27.52       27.46       27.40       27.33       27.25       27.17       27.09    
        27.00       26.90       26.80       26.69       26.58       26.45       26.32       26.18       26.03       25.87    
  10    27.91       27.90       27.89       27.88       27.86       27.84       27.82       27.79       27.76       27.72    
        27.68       27.63       27.58       27.52       27.46       27.40       27.33       27.25       27.17       27.09    
        27.00       26.90       26.80       26.69       26.58       26.45       26.32       26.18       26.03       25.87    
  11    27.91       27.90       27.89       27.88       27.86       27.84       27.82       27.79       27.76       27.72    
        27.68       27.63       27.58       27.52       27.46       27.40       27.33       27.25       27.17       27.09    
        27.00       26.90       26.80       26.69       26.58       26.45       26.32       26.18       26.03       25.87    
  12    27.91       27.90       27.89       27.88       27.86       27.84       27.82       27.79       27.76       27.72    
        27.68       27.63       27.58       27.52       27.46       27.40       27.33       27.25       27.17       27.09    
        27.00       26.90       26.80       26.69       26.58       26.45       26.32       26.18       26.03       25.87    
  13    27.91       27.90       27.89       27.88       27.86       27.84       27.82       27.79       27.76       27.72    
        27.68       27.63       27.58       27.52       27.46       27.40       27.33       27.25       27.17       27.09    
        27.00       26.90       26.80       26.69       26.58       26.45       26.32       26.18       26.03       25.87    
  14    27.91       27.90       27.89       27.88       27.86       27.84       27.82       27.79       27.76       27.72    
        27.68       27.63       27.58       27.52       27.46       27.40       27.33       27.25       27.17       27.09    
        27.00       26.90       26.80       26.69       26.58       26.45       26.32       26.18       26.03       25.87    
  15    27.91       27.90       27.89       27.88       27.86       27.84       27.82       27.79       27.76       27.72    
        27.68       27.63       27.58       27.52       27.46       27.40       27.33       27.25       27.17       27.09    
        27.00       26.90       26.80       26.69       26.58       26.45       26.32       26.18       26.03       25.87    
  16    27.91       27.90       27.89       27.88       27.86       27.84       27.82       27.79       27.76       27.72    
        27.68       27.63       27.58       27.52       27.46       27.40       27.33       27.25       27.17       27.09    
        27.00       26.90       26.80       26.69       26.58       26.45       26.32       26.18       26.03       25.87    
  17    27.91       27.90       27.89       27.88       27.86       27.84       27.82       27.79       27.76       27.72    
        27.68       27.63       27.58       27.52       27.46       27.40       27.33       27.25       27.17       27.09    
        27.00       26.90       26.80       26.69       26.58       26.45       26.32       26.18       26.03       25.87    
  18    27.91       27.90       27.89       27.88       27.86       27.84       27.82       27.79       27.76       27.72    
        27.68       27.63       27.58       27.52       27.46       27.40       27.33       27.25       27.17       27.09    
        27.00       26.90       26.80       26.69       26.58       26.45       26.32       26.18       26.03       25.87    
  19    27.91       27.90       27.89       27.88       27.86       27.84       27.82       27.79       27.76       27.72    
        27.68       27.63       27.58       27.52       27.46       27.40       27.33       27.25       27.17       27.09    
        27.00       26.90       26.80       26.69       26.58       26.45       26.32       26.18       26.03       25.87    
  20    27.91       27.90       27.89       27.88       27.86       27.84       27.82       27.79       27.76       27.72    
        27.68       27.63       27.58       27.52       27.46       27.40       27.33       27.25       27.17       27.09    
        27.00       26.90       26.80       26.69       26.58       26.45       26.32       26.18       26.03       25.87    
  21    27.91       27.90       27.89       27.88       27.86       27.84       27.82       27.79       27.76       27.72    
        27.68       27.63       27.58       27.52       27.46       27.40       27.33       27.25       27.17       27.09    
        27.00       26.90       26.80       26.69       26.58       26.45       26.32       26.18       26.03       25.87    
  22    27.91       27.90       27.89       27.88       27.86       27.84       27.82       27.79       27.76       27.72    
        27.68       27.63       27.58       27.52       27.46       27.40       27.33       27.25       27.17       27.09    
        27.00       26.90       26.80       26.69       26.58       26.45       26.32       26.18       26.03       25.87    
  23    27.91       27.90       27.89       27.88       27.86       27.84       27.82       27.79       27.76       27.72    
        27.68       27.63       27.58       27.52       27.46       27.40       27.33       27.25       27.17       27.09    
        27.00       26.90       26.80       26.69       26.58       26.45       26.32       26.18       26.03       25.87    
  24    27.91       27.90       27.89       27.88       27.86       27.84       27.82       27.79       27.76       27.72    
        27.68       27.63       27.58       27.52       27.46       27.40       27.33       27.25       27.17       27.09    
        27.00       26.90       26.80       26.69       26.58       26.45       26.32       26.18       26.03       25.87    
  25    27.91       27.90       27.89       27.88       27.86       27.84       27.82       27.79       27.76       27.72    
        27.68       27.63       27.58       27.52       27.46       27.40       27.33       27.25       27.17       27.09    
        27.00       26.90       26.80       26.69       26.58       26.45       26.32       26.18       26.03       25.87    
  26    27.91       27.90       27.89       27.88       27.86       27.84       27.82       27.79       27.76       27.72    
        27.68       27.63       27.58       27.52       27.46       27.40       27.33       27.25       27.17       27.09    
        27.00       26.90       26.80       26.69       26.58       26.45       26.32       26.18       26.03       25.87    
  27    27.91       27.90       27.89       27.88       27.86       27.84       27.82       27.79       27.76       27.72    
        27.68       27.63       27.58       27.52       27.46       27.40       27.33       27.25       27.17       27.09    
        27.00       26.90       26.80       26.69       26.58       26.45       26.32       26.18       26.03       25.87    
  28    27.91       27.90       27.89       27.88       27.86       27.84       27.82       27.79       27.76       27.72    
        27.68       27.63       27.58       27.52       27.46       27.40       27.33       27.25       27.17       27.09    
        27.00       26.90       26.80       26.69       26.58       26.45       26.32       26.18       26.03       25.87    
  29    27.91       27.90       27.89       27.88       27.86       27.84       27.82       27.79       27.76       27.72    
        27.68       27.63       27.58       27.52       27.46       27.40       27.33       27.25       27.17       27.09    
        27.00       26.90       26.80       26.69       26.58       26.45       26.32       26.18       26.03       25.87    
  30    27.91       27.90       27.89       27.88       27.86       27.84       27.82       27.79       27.76       27.72    
        27.68       27.63       27.58       27.52       27.46       27.40       27.33       27.25       27.17       27.09    
        27.00       26.90       26.80       26.69       26.58       26.45       26.32       26.18       26.03       25.87    

 HEAD WILL BE SAVED ON UNIT 1017 AT END OF TIME STEP   10, STRESS PERIOD   18


  VOLUME BUDGET FOR ENTIRE MODEL AT END OF TIME STEP   10, STRESS PERIOD  18
  ---------------------------------------------------------------------------------------------------

     CUMULATIVE VOLUME      L**3       RATES FOR THIS TIME STEP      L**3/T          PACKAGE NAME    
     ------------------                 ------------------------                     ----------------

           IN:                                      IN:
           ---                                      ---
              STO-SS =          29.8955                STO-SS =       8.3550E-02     STORAGE         
              STO-SY =       18687.1192                STO-SY =          52.0295     STORAGE         
                 RCH =       84616.4745                   RCH =          71.5068     RCHA            
                 CHD =           0.0000                   CHD =           0.0000     CHD             

            TOTAL IN =      103333.4892              TOTAL IN =         123.6199

          OUT:                                     OUT:
          ----                                     ----
              STO-SS =          17.4630                STO-SS =           0.0000     STORAGE         
              STO-SY =       11202.6563                STO-SY =           0.0000     STORAGE         
                 RCH =           0.0000                   RCH =           0.0000     RCHA            
                 CHD =       92112.4895                   CHD =         123.5926     CHD             

           TOTAL OUT =      103332.6087             TOTAL OUT =         123.5926

            IN - OUT =           0.8804              IN - OUT =       2.7272E-02

 PERCENT DISCREPANCY =           0.00     PERCENT DISCREPANCY =           0.02




         TIME SUMMARY AT END OF TIME STEP   10 IN STRESS PERIOD   18
                    SECONDS     MINUTES      HOURS       DAYS        YEARS
                    -----------------------------------------------------------
   TIME STEP LENGTH 2.59200E+05  4320.0      72.000      3.0000     8.21355E-03
 STRESS PERIOD TIME 2.59200E+06  43200.      720.00      30.000     8.21355E-02
         TOTAL TIME 4.41504E+07 7.35840E+05  12264.      511.00      1.3990    

 OUTPUT CONTROL FOR STRESS PERIOD 19 IS REPEATED USING SETTINGS FROM A PREVIOUS STRESS PERIOD.


 STRESS PERIOD 19 IS TRANSIENT


                 RECHARGE =  0.5479452E-03
 UBDSV1 SAVING           STO-SS ON UNIT   1016 AT TIME STEP      1, STRESS PERIOD     19
 UBDSV1 SAVING           STO-SY ON UNIT   1016 AT TIME STEP      1, STRESS PERIOD     19
 UBDSV1 SAVING     FLOW-JA-FACE ON UNIT   1016 AT TIME STEP      1, STRESS PERIOD     19
 UBDSV06 SAVING              RCH IN MODEL TEST_TRANS       PACKAGE TEST_TRANS      CONNECTED TO MODEL TEST_TRANS       PACKAGE RCHA             ON UNIT   1016 AT TIME STEP      1, STRESS PERIOD     19
 UBDSV06 SAVING              CHD IN MODEL TEST_TRANS       PACKAGE TEST_TRANS      CONNECTED TO MODEL TEST_TRANS       PACKAGE CHD              ON UNIT   1016 AT TIME STEP      1, STRESS PERIOD     19
1
  HEAD IN LAYER   1 AT END OF TIME STEP   1 IN STRESS PERIOD   19
  ---------------------------------------------------------------------------

            1           2           3           4           5           6           7           8           9          10
           11          12          13          14          15          16          17          18          19          20
           21          22          23          24          25          26          27          28          29          30
 ........................................................................................................................
   1    27.89       27.88       27.88       27.86       27.85       27.83       27.80       27.77       27.74       27.70    
        27.66       27.61       27.56       27.51       27.45       27.38       27.31       27.24       27.16       27.07    
        26.98       26.88       26.78       26.66       26.53       26.38       26.21       25.99       25.70       25.27    
   2    27.89       27.88       27.88       27.86       27.85       27.83       27.80       27.77       27.74       27.70    
        27.66       27.61       27.56       27.51       27.45       27.38       27.31       27.24       27.16       27.07    
        26.98       26.88       26.78       26.66       26.53       26.38       26.21       25.99       25.70       25.27    
   3    27.89       27.88       27.88       27.86       27.85       27.83       27.80       27.77       27.74       27.70    
        27.66       27.61       27.56       27.51       27.45       27.38       27.31       27.24       27.16       27.07    
        26.98       26.88       26.78       26.66       26.53       26.38       26.21       25.99       25.70       25.27    
   4    27.89       27.88       27.88       27.86       27.85       27.83       27.80       27.77       27.74       27.70    
        27.66       27.61       27.56       27.51       27.45       27.38       27.31       27.24       27.16       27.07    
        26.98       26.88       26.78       26.66       26.53       26.38       26.21       25.99       25.70       25.27    
   5    27.89       27.88       27.88       27.86       27.85       27.83       27.80       27.77       27.74       27.70    
        27.66       27.61       27.56       27.51       27.45       27.38       27.31       27.24       27.16       27.07    
        26.98       26.88       26.78       26.66       26.53       26.38       26.21       25.99       25.70       25.27    
   6    27.89       27.88       27.88       27.86       27.85       27.83       27.80       27.77       27.74       27.70    
        27.66       27.61       27.56       27.51       27.45       27.38       27.31       27.24       27.16       27.07    
        26.98       26.88       26.78       26.66       26.53       26.38       26.21       25.99       25.70       25.27    
   7    27.89       27.88       27.88       27.86       27.85       27.83       27.80       27.77       27.74       27.70    
        27.66       27.61       27.56       27.51       27.45       27.38       27.31       27.24       27.16       27.07    
        26.98       26.88       26.78       26.66       26.53       26.38       26.21       25.99       25.70       25.27    
   8    27.89       27.88       27.88       27.86       27.85       27.83       27.80       27.77       27.74       27.70    
        27.66       27.61       27.56       27.51       27.45       27.38       27.31       27.24       27.16       27.07    
        26.98       26.88       26.78       26.66       26.53       26.38       26.21       25.99       25.70       25.27    
   9    27.89       27.88       27.88       27.86       27.85       27.83       27.80       27.77       27.74       27.70    
        27.66       27.61       27.56       27.51       27.45       27.38       27.31       27.24       27.16       27.07    
        26.98       26.88       26.78       26.66       26.53       26.38       26.21       25.99       25.70       25.27    
  10    27.89       27.88       27.88       27.86       27.85       27.83       27.80       27.77       27.74       27.70    
        27.66       27.61       27.56       27.51       27.45       27.38       27.31       27.24       27.16       27.07    
        26.98       26.88       26.78       26.66       26.53       26.38       26.21       25.99       25.70       25.27    
  11    27.89       27.88       27.88       27.86       27.85       27.83       27.80       27.77       27.74       27.70    
        27.66       27.61       27.56       27.51       27.45       27.38       27.31       27.24       27.16       27.07    
        26.98       26.88       26.78       26.66       26.53       26.38       26.21       25.99       25.70       25.27    
  12    27.89       27.88       27.88       27.86       27.85       27.83       27.80       27.77       27.74       27.70    
        27.66       27.61       27.56       27.51       27.45       27.38       27.31       27.24       27.16       27.07    
        26.98       26.88       26.78       26.66       26.53       26.38       26.21       25.99       25.70       25.27    
  13    27.89       27.88       27.88       27.86       27.85       27.83       27.80       27.77       27.74       27.70    
        27.66       27.61       27.56       27.51       27.45       27.38       27.31       27.24       27.16       27.07    
        26.98       26.88       26.78       26.66       26.53       26.38       26.21       25.99       25.70       25.27    
  14    27.89       27.88       27.88       27.86       27.85       27.83       27.80       27.77       27.74       27.70    
        27.66       27.61       27.56       27.51       27.45       27.38       27.31       27.24       27.16       27.07    
        26.98       26.88       26.78       26.66       26.53       26.38       26.21       25.99       25.70       25.27    
  15    27.89       27.88       27.88       27.86       27.85       27.83       27.80       27.77       27.74       27.70    
        27.66       27.61       27.56       27.51       27.45       27.38       27.31       27.24       27.16       27.07    
        26.98       26.88       26.78       26.66       26.53       26.38       26.21       25.99       25.70       25.27    
  16    27.89       27.88       27.88       27.86       27.85       27.83       27.80       27.77       27.74       27.70    
        27.66       27.61       27.56       27.51       27.45       27.38       27.31       27.24       27.16       27.07    
        26.98       26.88       26.78       26.66       26.53       26.38       26.21       25.99       25.70       25.27    
  17    27.89       27.88       27.88       27.86       27.85       27.83       27.80       27.77       27.74       27.70    
        27.66       27.61       27.56       27.51       27.45       27.38       27.31       27.24       27.16       27.07    
        26.98       26.88       26.78       26.66       26.53       26.38       26.21       25.99       25.70       25.27    
  18    27.89       27.88       27.88       27.86       27.85       27.83       27.80       27.77       27.74       27.70    
        27.66       27.61       27.56       27.51       27.45       27.38       27.31       27.24       27.16       27.07    
        26.98       26.88       26.78       26.66       26.53       26.38       26.21       25.99       25.70       25.27    
  19    27.89       27.88       27.88       27.86       27.85       27.83       27.80       27.77       27.74       27.70    
        27.66       27.61       27.56       27.51       27.45       27.38       27.31       27.24       27.16       27.07    
        26.98       26.88       26.78       26.66       26.53       26.38       26.21       25.99       25.70       25.27    
  20    27.89       27.88       27.88       27.86       27.85       27.83       27.80       27.77       27.74       27.70    
        27.66       27.61       27.56       27.51       27.45       27.38       27.31       27.24       27.16       27.07    
        26.98       26.88       26.78       26.66       26.53       26.38       26.21       25.99       25.70       25.27    
  21    27.89       27.88       27.88       27.86       27.85       27.83       27.80       27.77       27.74       27.70    
        27.66       27.61       27.56       27.51       27.45       27.38       27.31       27.24       27.16       27.07    
        26.98       26.88       26.78       26.66       26.53       26.38       26.21       25.99       25.70       25.27    
  22    27.89       27.88       27.88       27.86       27.85       27.83       27.80       27.77       27.74       27.70    
        27.66       27.61       27.56       27.51       27.45       27.38       27.31       27.24       27.16       27.07    
        26.98       26.88       26.78       26.66       26.53       26.38       26.21       25.99       25.70       25.27    
  23    27.89       27.88       27.88       27.86       27.85       27.83       27.80       27.77       27.74       27.70    
        27.66       27.61       27.56       27.51       27.45       27.38       27.31       27.24       27.16       27.07    
        26.98       26.88       26.78       26.66       26.53       26.38       26.21       25.99       25.70       25.27    
  24    27.89       27.88       27.88       27.86       27.85       27.83       27.80       27.77       27.74       27.70    
        27.66       27.61       27.56       27.51       27.45       27.38       27.31       27.24       27.16       27.07    
        26.98       26.88       26.78       26.66       26.53       26.38       26.21       25.99       25.70       25.27    
  25    27.89       27.88       27.88       27.86       27.85       27.83       27.80       27.77       27.74       27.70    
        27.66       27.61       27.56       27.51       27.45       27.38       27.31       27.24       27.16       27.07    
        26.98       26.88       26.78       26.66       26.53       26.38       26.21       25.99       25.70       25.27    
  26    27.89       27.88       27.88       27.86       27.85       27.83       27.80       27.77       27.74       27.70    
        27.66       27.61       27.56       27.51       27.45       27.38       27.31       27.24       27.16       27.07    
        26.98       26.88       26.78       26.66       26.53       26.38       26.21       25.99       25.70       25.27    
  27    27.89       27.88       27.88       27.86       27.85       27.83       27.80       27.77       27.74       27.70    
        27.66       27.61       27.56       27.51       27.45       27.38       27.31       27.24       27.16       27.07    
        26.98       26.88       26.78       26.66       26.53       26.38       26.21       25.99       25.70       25.27    
  28    27.89       27.88       27.88       27.86       27.85       27.83       27.80       27.77       27.74       27.70    
        27.66       27.61       27.56       27.51       27.45       27.38       27.31       27.24       27.16       27.07    
        26.98       26.88       26.78       26.66       26.53       26.38       26.21       25.99       25.70       25.27    
  29    27.89       27.88       27.88       27.86       27.85       27.83       27.80       27.77       27.74       27.70    
        27.66       27.61       27.56       27.51       27.45       27.38       27.31       27.24       27.16       27.07    
        26.98       26.88       26.78       26.66       26.53       26.38       26.21       25.99       25.70       25.27    
  30    27.89       27.88       27.88       27.86       27.85       27.83       27.80       27.77       27.74       27.70    
        27.66       27.61       27.56       27.51       27.45       27.38       27.31       27.24       27.16       27.07    
        26.98       26.88       26.78       26.66       26.53       26.38       26.21       25.99       25.70       25.27    

 HEAD WILL BE SAVED ON UNIT 1017 AT END OF TIME STEP    1, STRESS PERIOD   19



         TIME SUMMARY AT END OF TIME STEP    1 IN STRESS PERIOD   19
                    SECONDS     MINUTES      HOURS       DAYS        YEARS
                    -----------------------------------------------------------
   TIME STEP LENGTH 2.59200E+05  4320.0      72.000      3.0000     8.21355E-03
 STRESS PERIOD TIME 2.59200E+05  4320.0      72.000      3.0000     8.21355E-03
         TOTAL TIME 4.44096E+07 7.40160E+05  12336.      514.00      1.4073    
 UBDSV1 SAVING           STO-SS ON UNIT   1016 AT TIME STEP      2, STRESS PERIOD     19
 UBDSV1 SAVING           STO-SY ON UNIT   1016 AT TIME STEP      2, STRESS PERIOD     19
 UBDSV1 SAVING     FLOW-JA-FACE ON UNIT   1016 AT TIME STEP      2, STRESS PERIOD     19
 UBDSV06 SAVING              RCH IN MODEL TEST_TRANS       PACKAGE TEST_TRANS      CONNECTED TO MODEL TEST_TRANS       PACKAGE RCHA             ON UNIT   1016 AT TIME STEP      2, STRESS PERIOD     19
 UBDSV06 SAVING              CHD IN MODEL TEST_TRANS       PACKAGE TEST_TRANS      CONNECTED TO MODEL TEST_TRANS       PACKAGE CHD              ON UNIT   1016 AT TIME STEP      2, STRESS PERIOD     19

 HEAD WILL BE SAVED ON UNIT 1017 AT END OF TIME STEP    2, STRESS PERIOD   19
 UBDSV1 SAVING           STO-SS ON UNIT   1016 AT TIME STEP      3, STRESS PERIOD     19
 UBDSV1 SAVING           STO-SY ON UNIT   1016 AT TIME STEP      3, STRESS PERIOD     19
 UBDSV1 SAVING     FLOW-JA-FACE ON UNIT   1016 AT TIME STEP      3, STRESS PERIOD     19
 UBDSV06 SAVING              RCH IN MODEL TEST_TRANS       PACKAGE TEST_TRANS      CONNECTED TO MODEL TEST_TRANS       PACKAGE RCHA             ON UNIT   1016 AT TIME STEP      3, STRESS PERIOD     19
 UBDSV06 SAVING              CHD IN MODEL TEST_TRANS       PACKAGE TEST_TRANS      CONNECTED TO MODEL TEST_TRANS       PACKAGE CHD              ON UNIT   1016 AT TIME STEP      3, STRESS PERIOD     19

 HEAD WILL BE SAVED ON UNIT 1017 AT END OF TIME STEP    3, STRESS PERIOD   19
 UBDSV1 SAVING           STO-SS ON UNIT   1016 AT TIME STEP      4, STRESS PERIOD     19
 UBDSV1 SAVING           STO-SY ON UNIT   1016 AT TIME STEP      4, STRESS PERIOD     19
 UBDSV1 SAVING     FLOW-JA-FACE ON UNIT   1016 AT TIME STEP      4, STRESS PERIOD     19
 UBDSV06 SAVING              RCH IN MODEL TEST_TRANS       PACKAGE TEST_TRANS      CONNECTED TO MODEL TEST_TRANS       PACKAGE RCHA             ON UNIT   1016 AT TIME STEP      4, STRESS PERIOD     19
 UBDSV06 SAVING              CHD IN MODEL TEST_TRANS       PACKAGE TEST_TRANS      CONNECTED TO MODEL TEST_TRANS       PACKAGE CHD              ON UNIT   1016 AT TIME STEP      4, STRESS PERIOD     19

 HEAD WILL BE SAVED ON UNIT 1017 AT END OF TIME STEP    4, STRESS PERIOD   19
 UBDSV1 SAVING           STO-SS ON UNIT   1016 AT TIME STEP      5, STRESS PERIOD     19
 UBDSV1 SAVING           STO-SY ON UNIT   1016 AT TIME STEP      5, STRESS PERIOD     19
 UBDSV1 SAVING     FLOW-JA-FACE ON UNIT   1016 AT TIME STEP      5, STRESS PERIOD     19
 UBDSV06 SAVING              RCH IN MODEL TEST_TRANS       PACKAGE TEST_TRANS      CONNECTED TO MODEL TEST_TRANS       PACKAGE RCHA             ON UNIT   1016 AT TIME STEP      5, STRESS PERIOD     19
 UBDSV06 SAVING              CHD IN MODEL TEST_TRANS       PACKAGE TEST_TRANS      CONNECTED TO MODEL TEST_TRANS       PACKAGE CHD              ON UNIT   1016 AT TIME STEP      5, STRESS PERIOD     19

 HEAD WILL BE SAVED ON UNIT 1017 AT END OF TIME STEP    5, STRESS PERIOD   19
 UBDSV1 SAVING           STO-SS ON UNIT   1016 AT TIME STEP      6, STRESS PERIOD     19
 UBDSV1 SAVING           STO-SY ON UNIT   1016 AT TIME STEP      6, STRESS PERIOD     19
 UBDSV1 SAVING     FLOW-JA-FACE ON UNIT   1016 AT TIME STEP      6, STRESS PERIOD     19
 UBDSV06 SAVING              RCH IN MODEL TEST_TRANS       PACKAGE TEST_TRANS      CONNECTED TO MODEL TEST_TRANS       PACKAGE RCHA             ON UNIT   1016 AT TIME STEP      6, STRESS PERIOD     19
 UBDSV06 SAVING              CHD IN MODEL TEST_TRANS       PACKAGE TEST_TRANS      CONNECTED TO MODEL TEST_TRANS       PACKAGE CHD              ON UNIT   1016 AT TIME STEP      6, STRESS PERIOD     19

 HEAD WILL BE SAVED ON UNIT 1017 AT END OF TIME STEP    6, STRESS PERIOD   19
 UBDSV1 SAVING           STO-SS ON UNIT   1016 AT TIME STEP      7, STRESS PERIOD     19
 UBDSV1 SAVING           STO-SY ON UNIT   1016 AT TIME STEP      7, STRESS PERIOD     19
 UBDSV1 SAVING     FLOW-JA-FACE ON UNIT   1016 AT TIME STEP      7, STRESS PERIOD     19
 UBDSV06 SAVING              RCH IN MODEL TEST_TRANS       PACKAGE TEST_TRANS      CONNECTED TO MODEL TEST_TRANS       PACKAGE RCHA             ON UNIT   1016 AT TIME STEP      7, STRESS PERIOD     19
 UBDSV06 SAVING              CHD IN MODEL TEST_TRANS       PACKAGE TEST_TRANS      CONNECTED TO MODEL TEST_TRANS       PACKAGE CHD              ON UNIT   1016 AT TIME STEP      7, STRESS PERIOD     19

 HEAD WILL BE SAVED ON UNIT 1017 AT END OF TIME STEP    7, STRESS PERIOD   19
 UBDSV1 SAVING           STO-SS ON UNIT   1016 AT TIME STEP      8, STRESS PERIOD     19
 UBDSV1 SAVING           STO-SY ON UNIT   1016 AT TIME STEP      8, STRESS PERIOD     19
 UBDSV1 SAVING     FLOW-JA-FACE ON UNIT   1016 AT TIME STEP      8, STRESS PERIOD     19
 UBDSV06 SAVING              RCH IN MODEL TEST_TRANS       PACKAGE TEST_TRANS      CONNECTED TO MODEL TEST_TRANS       PACKAGE RCHA             ON UNIT   1016 AT TIME STEP      8, STRESS PERIOD     19
 UBDSV06 SAVING              CHD IN MODEL TEST_TRANS       PACKAGE TEST_TRANS      CONNECTED TO MODEL TEST_TRANS       PACKAGE CHD              ON UNIT   1016 AT TIME STEP      8, STRESS PERIOD     19

 HEAD WILL BE SAVED ON UNIT 1017 AT END OF TIME STEP    8, STRESS PERIOD   19
 UBDSV1 SAVING           STO-SS ON UNIT   1016 AT TIME STEP      9, STRESS PERIOD     19
 UBDSV1 SAVING           STO-SY ON UNIT   1016 AT TIME STEP      9, STRESS PERIOD     19
 UBDSV1 SAVING     FLOW-JA-FACE ON UNIT   1016 AT TIME STEP      9, STRESS PERIOD     19
 UBDSV06 SAVING              RCH IN MODEL TEST_TRANS       PACKAGE TEST_TRANS      CONNECTED TO MODEL TEST_TRANS       PACKAGE RCHA             ON UNIT   1016 AT TIME STEP      9, STRESS PERIOD     19
 UBDSV06 SAVING              CHD IN MODEL TEST_TRANS       PACKAGE TEST_TRANS      CONNECTED TO MODEL TEST_TRANS       PACKAGE CHD              ON UNIT   1016 AT TIME STEP      9, STRESS PERIOD     19

 HEAD WILL BE SAVED ON UNIT 1017 AT END OF TIME STEP    9, STRESS PERIOD   19
 UBDSV1 SAVING           STO-SS ON UNIT   1016 AT TIME STEP     10, STRESS PERIOD     19
 UBDSV1 SAVING           STO-SY ON UNIT   1016 AT TIME STEP     10, STRESS PERIOD     19
 UBDSV1 SAVING     FLOW-JA-FACE ON UNIT   1016 AT TIME STEP     10, STRESS PERIOD     19
 UBDSV06 SAVING              RCH IN MODEL TEST_TRANS       PACKAGE TEST_TRANS      CONNECTED TO MODEL TEST_TRANS       PACKAGE RCHA             ON UNIT   1016 AT TIME STEP     10, STRESS PERIOD     19
 UBDSV06 SAVING              CHD IN MODEL TEST_TRANS       PACKAGE TEST_TRANS      CONNECTED TO MODEL TEST_TRANS       PACKAGE CHD              ON UNIT   1016 AT TIME STEP     10, STRESS PERIOD     19
1
  HEAD IN LAYER   1 AT END OF TIME STEP  10 IN STRESS PERIOD   19
  ---------------------------------------------------------------------------

            1           2           3           4           5           6           7           8           9          10
           11          12          13          14          15          16          17          18          19          20
           21          22          23          24          25          26          27          28          29          30
 ........................................................................................................................
   1    27.74       27.73       27.73       27.71       27.70       27.68       27.65       27.62       27.59       27.55    
        27.51       27.46       27.41       27.35       27.29       27.22       27.14       27.06       26.97       26.87    
        26.77       26.65       26.53       26.39       26.25       26.09       25.91       25.72       25.51       25.27    
   2    27.74       27.73       27.73       27.71       27.70       27.68       27.65       27.62       27.59       27.55    
        27.51       27.46       27.41       27.35       27.29       27.22       27.14       27.06       26.97       26.87    
        26.77       26.65       26.53       26.39       26.25       26.09       25.91       25.72       25.51       25.27    
   3    27.74       27.73       27.73       27.71       27.70       27.68       27.65       27.62       27.59       27.55    
        27.51       27.46       27.41       27.35       27.29       27.22       27.14       27.06       26.97       26.87    
        26.77       26.65       26.53       26.39       26.25       26.09       25.91       25.72       25.51       25.27    
   4    27.74       27.73       27.73       27.71       27.70       27.68       27.65       27.62       27.59       27.55    
        27.51       27.46       27.41       27.35       27.29       27.22       27.14       27.06       26.97       26.87    
        26.77       26.65       26.53       26.39       26.25       26.09       25.91       25.72       25.51       25.27    
   5    27.74       27.73       27.73       27.71       27.70       27.68       27.65       27.62       27.59       27.55    
        27.51       27.46       27.41       27.35       27.29       27.22       27.14       27.06       26.97       26.87    
        26.77       26.65       26.53       26.39       26.25       26.09       25.91       25.72       25.51       25.27    
   6    27.74       27.73       27.73       27.71       27.70       27.68       27.65       27.62       27.59       27.55    
        27.51       27.46       27.41       27.35       27.29       27.22       27.14       27.06       26.97       26.87    
        26.77       26.65       26.53       26.39       26.25       26.09       25.91       25.72       25.51       25.27    
   7    27.74       27.73       27.73       27.71       27.70       27.68       27.65       27.62       27.59       27.55    
        27.51       27.46       27.41       27.35       27.29       27.22       27.14       27.06       26.97       26.87    
        26.77       26.65       26.53       26.39       26.25       26.09       25.91       25.72       25.51       25.27    
   8    27.74       27.73       27.73       27.71       27.70       27.68       27.65       27.62       27.59       27.55    
        27.51       27.46       27.41       27.35       27.29       27.22       27.14       27.06       26.97       26.87    
        26.77       26.65       26.53       26.39       26.25       26.09       25.91       25.72       25.51       25.27    
   9    27.74       27.73       27.73       27.71       27.70       27.68       27.65       27.62       27.59       27.55    
        27.51       27.46       27.41       27.35       27.29       27.22       27.14       27.06       26.97       26.87    
        26.77       26.65       26.53       26.39       26.25       26.09       25.91       25.72       25.51       25.27    
  10    27.74       27.73       27.73       27.71       27.70       27.68       27.65       27.62       27.59       27.55    
        27.51       27.46       27.41       27.35       27.29       27.22       27.14       27.06       26.97       26.87    
        26.77       26.65       26.53       26.39       26.25       26.09       25.91       25.72       25.51       25.27    
  11    27.74       27.73       27.73       27.71       27.70       27.68       27.65       27.62       27.59       27.55    
        27.51       27.46       27.41       27.35       27.29       27.22       27.14       27.06       26.97       26.87    
        26.77       26.65       26.53       26.39       26.25       26.09       25.91       25.72       25.51       25.27    
  12    27.74       27.73       27.73       27.71       27.70       27.68       27.65       27.62       27.59       27.55    
        27.51       27.46       27.41       27.35       27.29       27.22       27.14       27.06       26.97       26.87    
        26.77       26.65       26.53       26.39       26.25       26.09       25.91       25.72       25.51       25.27    
  13    27.74       27.73       27.73       27.71       27.70       27.68       27.65       27.62       27.59       27.55    
        27.51       27.46       27.41       27.35       27.29       27.22       27.14       27.06       26.97       26.87    
        26.77       26.65       26.53       26.39       26.25       26.09       25.91       25.72       25.51       25.27    
  14    27.74       27.73       27.73       27.71       27.70       27.68       27.65       27.62       27.59       27.55    
        27.51       27.46       27.41       27.35       27.29       27.22       27.14       27.06       26.97       26.87    
        26.77       26.65       26.53       26.39       26.25       26.09       25.91       25.72       25.51       25.27    
  15    27.74       27.73       27.73       27.71       27.70       27.68       27.65       27.62       27.59       27.55    
        27.51       27.46       27.41       27.35       27.29       27.22       27.14       27.06       26.97       26.87    
        26.77       26.65       26.53       26.39       26.25       26.09       25.91       25.72       25.51       25.27    
  16    27.74       27.73       27.73       27.71       27.70       27.68       27.65       27.62       27.59       27.55    
        27.51       27.46       27.41       27.35       27.29       27.22       27.14       27.06       26.97       26.87    
        26.77       26.65       26.53       26.39       26.25       26.09       25.91       25.72       25.51       25.27    
  17    27.74       27.73       27.73       27.71       27.70       27.68       27.65       27.62       27.59       27.55    
        27.51       27.46       27.41       27.35       27.29       27.22       27.14       27.06       26.97       26.87    
        26.77       26.65       26.53       26.39       26.25       26.09       25.91       25.72       25.51       25.27    
  18    27.74       27.73       27.73       27.71       27.70       27.68       27.65       27.62       27.59       27.55    
        27.51       27.46       27.41       27.35       27.29       27.22       27.14       27.06       26.97       26.87    
        26.77       26.65       26.53       26.39       26.25       26.09       25.91       25.72       25.51       25.27    
  19    27.74       27.73       27.73       27.71       27.70       27.68       27.65       27.62       27.59       27.55    
        27.51       27.46       27.41       27.35       27.29       27.22       27.14       27.06       26.97       26.87    
        26.77       26.65       26.53       26.39       26.25       26.09       25.91       25.72       25.51       25.27    
  20    27.74       27.73       27.73       27.71       27.70       27.68       27.65       27.62       27.59       27.55    
        27.51       27.46       27.41       27.35       27.29       27.22       27.14       27.06       26.97       26.87    
        26.77       26.65       26.53       26.39       26.25       26.09       25.91       25.72       25.51       25.27    
  21    27.74       27.73       27.73       27.71       27.70       27.68       27.65       27.62       27.59       27.55    
        27.51       27.46       27.41       27.35       27.29       27.22       27.14       27.06       26.97       26.87    
        26.77       26.65       26.53       26.39       26.25       26.09       25.91       25.72       25.51       25.27    
  22    27.74       27.73       27.73       27.71       27.70       27.68       27.65       27.62       27.59       27.55    
        27.51       27.46       27.41       27.35       27.29       27.22       27.14       27.06       26.97       26.87    
        26.77       26.65       26.53       26.39       26.25       26.09       25.91       25.72       25.51       25.27    
  23    27.74       27.73       27.73       27.71       27.70       27.68       27.65       27.62       27.59       27.55    
        27.51       27.46       27.41       27.35       27.29       27.22       27.14       27.06       26.97       26.87    
        26.77       26.65       26.53       26.39       26.25       26.09       25.91       25.72       25.51       25.27    
  24    27.74       27.73       27.73       27.71       27.70       27.68       27.65       27.62       27.59       27.55    
        27.51       27.46       27.41       27.35       27.29       27.22       27.14       27.06       26.97       26.87    
        26.77       26.65       26.53       26.39       26.25       26.09       25.91       25.72       25.51       25.27    
  25    27.74       27.73       27.73       27.71       27.70       27.68       27.65       27.62       27.59       27.55    
        27.51       27.46       27.41       27.35       27.29       27.22       27.14       27.06       26.97       26.87    
        26.77       26.65       26.53       26.39       26.25       26.09       25.91       25.72       25.51       25.27    
  26    27.74       27.73       27.73       27.71       27.70       27.68       27.65       27.62       27.59       27.55    
        27.51       27.46       27.41       27.35       27.29       27.22       27.14       27.06       26.97       26.87    
        26.77       26.65       26.53       26.39       26.25       26.09       25.91       25.72       25.51       25.27    
  27    27.74       27.73       27.73       27.71       27.70       27.68       27.65       27.62       27.59       27.55    
        27.51       27.46       27.41       27.35       27.29       27.22       27.14       27.06       26.97       26.87    
        26.77       26.65       26.53       26.39       26.25       26.09       25.91       25.72       25.51       25.27    
  28    27.74       27.73       27.73       27.71       27.70       27.68       27.65       27.62       27.59       27.55    
        27.51       27.46       27.41       27.35       27.29       27.22       27.14       27.06       26.97       26.87    
        26.77       26.65       26.53       26.39       26.25       26.09       25.91       25.72       25.51       25.27    
  29    27.74       27.73       27.73       27.71       27.70       27.68       27.65       27.62       27.59       27.55    
        27.51       27.46       27.41       27.35       27.29       27.22       27.14       27.06       26.97       26.87    
        26.77       26.65       26.53       26.39       26.25       26.09       25.91       25.72       25.51       25.27    
  30    27.74       27.73       27.73       27.71       27.70       27.68       27.65       27.62       27.59       27.55    
        27.51       27.46       27.41       27.35       27.29       27.22       27.14       27.06       26.97       26.87    
        26.77       26.65       26.53       26.39       26.25       26.09       25.91       25.72       25.51       25.27    

 HEAD WILL BE SAVED ON UNIT 1017 AT END OF TIME STEP   10, STRESS PERIOD   19


  VOLUME BUDGET FOR ENTIRE MODEL AT END OF TIME STEP   10, STRESS PERIOD  19
  ---------------------------------------------------------------------------------------------------

     CUMULATIVE VOLUME      L**3       RATES FOR THIS TIME STEP      L**3/T          PACKAGE NAME    
     ------------------                 ------------------------                     ----------------

           IN:                                      IN:
           ---                                      ---
              STO-SS =          36.0533                STO-SS =           0.1540     STORAGE         
              STO-SY =       22677.3090                STO-SY =          98.4736     STORAGE         
                 RCH =       86046.6114                   RCH =          47.6712     RCHA            
                 CHD =           0.0000                   CHD =           0.0000     CHD             

            TOTAL IN =      108759.9738              TOTAL IN =         146.2988

          OUT:                                     OUT:
          ----                                     ----
              STO-SS =          17.4630                STO-SS =           0.0000     STORAGE         
              STO-SY =       11202.6563                STO-SY =           0.0000     STORAGE         
                 RCH =           0.0000                   RCH =           0.0000     RCHA            
                 CHD =       97538.8261                   CHD =         146.2899     CHD             

           TOTAL OUT =      108758.9454             TOTAL OUT =         146.2899

            IN - OUT =           1.0284              IN - OUT =       8.8668E-03

 PERCENT DISCREPANCY =           0.00     PERCENT DISCREPANCY =           0.01




         TIME SUMMARY AT END OF TIME STEP   10 IN STRESS PERIOD   19
                    SECONDS     MINUTES      HOURS       DAYS        YEARS
                    -----------------------------------------------------------
   TIME STEP LENGTH 2.59200E+05  4320.0      72.000      3.0000     8.21355E-03
 STRESS PERIOD TIME 2.59200E+06  43200.      720.00      30.000     8.21355E-02
         TOTAL TIME 4.67424E+07 7.79040E+05  12984.      541.00      1.4812    

 OUTPUT CONTROL FOR STRESS PERIOD 20 IS REPEATED USING SETTINGS FROM A PREVIOUS STRESS PERIOD.


 STRESS PERIOD 20 IS TRANSIENT


                 RECHARGE =  0.1095890E-02
 UBDSV1 SAVING           STO-SS ON UNIT   1016 AT TIME STEP      1, STRESS PERIOD     20
 UBDSV1 SAVING           STO-SY ON UNIT   1016 AT TIME STEP      1, STRESS PERIOD     20
 UBDSV1 SAVING     FLOW-JA-FACE ON UNIT   1016 AT TIME STEP      1, STRESS PERIOD     20
 UBDSV06 SAVING              RCH IN MODEL TEST_TRANS       PACKAGE TEST_TRANS      CONNECTED TO MODEL TEST_TRANS       PACKAGE RCHA             ON UNIT   1016 AT TIME STEP      1, STRESS PERIOD     20
 UBDSV06 SAVING              CHD IN MODEL TEST_TRANS       PACKAGE TEST_TRANS      CONNECTED TO MODEL TEST_TRANS       PACKAGE CHD              ON UNIT   1016 AT TIME STEP      1, STRESS PERIOD     20
1
  HEAD IN LAYER   1 AT END OF TIME STEP   1 IN STRESS PERIOD   20
  ---------------------------------------------------------------------------

            1           2           3           4           5           6           7           8           9          10
           11          12          13          14          15          16          17          18          19          20
           21          22          23          24          25          26          27          28          29          30
 ........................................................................................................................
   1    27.73       27.72       27.72       27.70       27.69       27.67       27.64       27.61       27.58       27.54    
        27.50       27.45       27.40       27.34       27.28       27.21       27.13       27.05       26.96       26.86    
        26.76       26.64       26.52       26.38       26.24       26.08       25.90       25.71       25.49       25.23    
   2    27.73       27.72       27.72       27.70       27.69       27.67       27.64       27.61       27.58       27.54    
        27.50       27.45       27.40       27.34       27.28       27.21       27.13       27.05       26.96       26.86    
        26.76       26.64       26.52       26.38       26.24       26.08       25.90       25.71       25.49       25.23    
   3    27.73       27.72       27.72       27.70       27.69       27.67       27.64       27.61       27.58       27.54    
        27.50       27.45       27.40       27.34       27.28       27.21       27.13       27.05       26.96       26.86    
        26.76       26.64       26.52       26.38       26.24       26.08       25.90       25.71       25.49       25.23    
   4    27.73       27.72       27.72       27.70       27.69       27.67       27.64       27.61       27.58       27.54    
        27.50       27.45       27.40       27.34       27.28       27.21       27.13       27.05       26.96       26.86    
        26.76       26.64       26.52       26.38       26.24       26.08       25.90       25.71       25.49       25.23    
   5    27.73       27.72       27.72       27.70       27.69       27.67       27.64       27.61       27.58       27.54    
        27.50       27.45       27.40       27.34       27.28       27.21       27.13       27.05       26.96       26.86    
        26.76       26.64       26.52       26.38       26.24       26.08       25.90       25.71       25.49       25.23    
   6    27.73       27.72       27.72       27.70       27.69       27.67       27.64       27.61       27.58       27.54    
        27.50       27.45       27.40       27.34       27.28       27.21       27.13       27.05       26.96       26.86    
        26.76       26.64       26.52       26.38       26.24       26.08       25.90       25.71       25.49       25.23    
   7    27.73       27.72       27.72       27.70       27.69       27.67       27.64       27.61       27.58       27.54    
        27.50       27.45       27.40       27.34       27.28       27.21       27.13       27.05       26.96       26.86    
        26.76       26.64       26.52       26.38       26.24       26.08       25.90       25.71       25.49       25.23    
   8    27.73       27.72       27.72       27.70       27.69       27.67       27.64       27.61       27.58       27.54    
        27.50       27.45       27.40       27.34       27.28       27.21       27.13       27.05       26.96       26.86    
        26.76       26.64       26.52       26.38       26.24       26.08       25.90       25.71       25.49       25.23    
   9    27.73       27.72       27.72       27.70       27.69       27.67       27.64       27.61       27.58       27.54    
        27.50       27.45       27.40       27.34       27.28       27.21       27.13       27.05       26.96       26.86    
        26.76       26.64       26.52       26.38       26.24       26.08       25.90       25.71       25.49       25.23    
  10    27.73       27.72       27.72       27.70       27.69       27.67       27.64       27.61       27.58       27.54    
        27.50       27.45       27.40       27.34       27.28       27.21       27.13       27.05       26.96       26.86    
        26.76       26.64       26.52       26.38       26.24       26.08       25.90       25.71       25.49       25.23    
  11    27.73       27.72       27.72       27.70       27.69       27.67       27.64       27.61       27.58       27.54    
        27.50       27.45       27.40       27.34       27.28       27.21       27.13       27.05       26.96       26.86    
        26.76       26.64       26.52       26.38       26.24       26.08       25.90       25.71       25.49       25.23    
  12    27.73       27.72       27.72       27.70       27.69       27.67       27.64       27.61       27.58       27.54    
        27.50       27.45       27.40       27.34       27.28       27.21       27.13       27.05       26.96       26.86    
        26.76       26.64       26.52       26.38       26.24       26.08       25.90       25.71       25.49       25.23    
  13    27.73       27.72       27.72       27.70       27.69       27.67       27.64       27.61       27.58       27.54    
        27.50       27.45       27.40       27.34       27.28       27.21       27.13       27.05       26.96       26.86    
        26.76       26.64       26.52       26.38       26.24       26.08       25.90       25.71       25.49       25.23    
  14    27.73       27.72       27.72       27.70       27.69       27.67       27.64       27.61       27.58       27.54    
        27.50       27.45       27.40       27.34       27.28       27.21       27.13       27.05       26.96       26.86    
        26.76       26.64       26.52       26.38       26.24       26.08       25.90       25.71       25.49       25.23    
  15    27.73       27.72       27.72       27.70       27.69       27.67       27.64       27.61       27.58       27.54    
        27.50       27.45       27.40       27.34       27.28       27.21       27.13       27.05       26.96       26.86    
        26.76       26.64       26.52       26.38       26.24       26.08       25.90       25.71       25.49       25.23    
  16    27.73       27.72       27.72       27.70       27.69       27.67       27.64       27.61       27.58       27.54    
        27.50       27.45       27.40       27.34       27.28       27.21       27.13       27.05       26.96       26.86    
        26.76       26.64       26.52       26.38       26.24       26.08       25.90       25.71       25.49       25.23    
  17    27.73       27.72       27.72       27.70       27.69       27.67       27.64       27.61       27.58       27.54    
        27.50       27.45       27.40       27.34       27.28       27.21       27.13       27.05       26.96       26.86    
        26.76       26.64       26.52       26.38       26.24       26.08       25.90       25.71       25.49       25.23    
  18    27.73       27.72       27.72       27.70       27.69       27.67       27.64       27.61       27.58       27.54    
        27.50       27.45       27.40       27.34       27.28       27.21       27.13       27.05       26.96       26.86    
        26.76       26.64       26.52       26.38       26.24       26.08       25.90       25.71       25.49       25.23    
  19    27.73       27.72       27.72       27.70       27.69       27.67       27.64       27.61       27.58       27.54    
        27.50       27.45       27.40       27.34       27.28       27.21       27.13       27.05       26.96       26.86    
        26.76       26.64       26.52       26.38       26.24       26.08       25.90       25.71       25.49       25.23    
  20    27.73       27.72       27.72       27.70       27.69       27.67       27.64       27.61       27.58       27.54    
        27.50       27.45       27.40       27.34       27.28       27.21       27.13       27.05       26.96       26.86    
        26.76       26.64       26.52       26.38       26.24       26.08       25.90       25.71       25.49       25.23    
  21    27.73       27.72       27.72       27.70       27.69       27.67       27.64       27.61       27.58       27.54    
        27.50       27.45       27.40       27.34       27.28       27.21       27.13       27.05       26.96       26.86    
        26.76       26.64       26.52       26.38       26.24       26.08       25.90       25.71       25.49       25.23    
  22    27.73       27.72       27.72       27.70       27.69       27.67       27.64       27.61       27.58       27.54    
        27.50       27.45       27.40       27.34       27.28       27.21       27.13       27.05       26.96       26.86    
        26.76       26.64       26.52       26.38       26.24       26.08       25.90       25.71       25.49       25.23    
  23    27.73       27.72       27.72       27.70       27.69       27.67       27.64       27.61       27.58       27.54    
        27.50       27.45       27.40       27.34       27.28       27.21       27.13       27.05       26.96       26.86    
        26.76       26.64       26.52       26.38       26.24       26.08       25.90       25.71       25.49       25.23    
  24    27.73       27.72       27.72       27.70       27.69       27.67       27.64       27.61       27.58       27.54    
        27.50       27.45       27.40       27.34       27.28       27.21       27.13       27.05       26.96       26.86    
        26.76       26.64       26.52       26.38       26.24       26.08       25.90       25.71       25.49       25.23    
  25    27.73       27.72       27.72       27.70       27.69       27.67       27.64       27.61       27.58       27.54    
        27.50       27.45       27.40       27.34       27.28       27.21       27.13       27.05       26.96       26.86    
        26.76       26.64       26.52       26.38       26.24       26.08       25.90       25.71       25.49       25.23    
  26    27.73       27.72       27.72       27.70       27.69       27.67       27.64       27.61       27.58       27.54    
        27.50       27.45       27.40       27.34       27.28       27.21       27.13       27.05       26.96       26.86    
        26.76       26.64       26.52       26.38       26.24       26.08       25.90       25.71       25.49       25.23    
  27    27.73       27.72       27.72       27.70       27.69       27.67       27.64       27.61       27.58       27.54    
        27.50       27.45       27.40       27.34       27.28       27.21       27.13       27.05       26.96       26.86    
        26.76       26.64       26.52       26.38       26.24       26.08       25.90       25.71       25.49       25.23    
  28    27.73       27.72       27.72       27.70       27.69       27.67       27.64       27.61       27.58       27.54    
        27.50       27.45       27.40       27.34       27.28       27.21       27.13       27.05       26.96       26.86    
        26.76       26.64       26.52       26.38       26.24       26.08       25.90       25.71       25.49       25.23    
  29    27.73       27.72       27.72       27.70       27.69       27.67       27.64       27.61       27.58       27.54    
        27.50       27.45       27.40       27.34       27.28       27.21       27.13       27.05       26.96       26.86    
        26.76       26.64       26.52       26.38       26.24       26.08       25.90       25.71       25.49       25.23    
  30    27.73       27.72       27.72       27.70       27.69       27.67       27.64       27.61       27.58       27.54    
        27.50       27.45       27.40       27.34       27.28       27.21       27.13       27.05       26.96       26.86    
        26.76       26.64       26.52       26.38       26.24       26.08       25.90       25.71       25.49       25.23    

 HEAD WILL BE SAVED ON UNIT 1017 AT END OF TIME STEP    1, STRESS PERIOD   20



         TIME SUMMARY AT END OF TIME STEP    1 IN STRESS PERIOD   20
                    SECONDS     MINUTES      HOURS       DAYS        YEARS
                    -----------------------------------------------------------
   TIME STEP LENGTH 2.59200E+05  4320.0      72.000      3.0000     8.21355E-03
 STRESS PERIOD TIME 2.59200E+05  4320.0      72.000      3.0000     8.21355E-03
         TOTAL TIME 4.70016E+07 7.83360E+05  13056.      544.00      1.4894    
 UBDSV1 SAVING           STO-SS ON UNIT   1016 AT TIME STEP      2, STRESS PERIOD     20
 UBDSV1 SAVING           STO-SY ON UNIT   1016 AT TIME STEP      2, STRESS PERIOD     20
 UBDSV1 SAVING     FLOW-JA-FACE ON UNIT   1016 AT TIME STEP      2, STRESS PERIOD     20
 UBDSV06 SAVING              RCH IN MODEL TEST_TRANS       PACKAGE TEST_TRANS      CONNECTED TO MODEL TEST_TRANS       PACKAGE RCHA             ON UNIT   1016 AT TIME STEP      2, STRESS PERIOD     20
 UBDSV06 SAVING              CHD IN MODEL TEST_TRANS       PACKAGE TEST_TRANS      CONNECTED TO MODEL TEST_TRANS       PACKAGE CHD              ON UNIT   1016 AT TIME STEP      2, STRESS PERIOD     20

 HEAD WILL BE SAVED ON UNIT 1017 AT END OF TIME STEP    2, STRESS PERIOD   20
 UBDSV1 SAVING           STO-SS ON UNIT   1016 AT TIME STEP      3, STRESS PERIOD     20
 UBDSV1 SAVING           STO-SY ON UNIT   1016 AT TIME STEP      3, STRESS PERIOD     20
 UBDSV1 SAVING     FLOW-JA-FACE ON UNIT   1016 AT TIME STEP      3, STRESS PERIOD     20
 UBDSV06 SAVING              RCH IN MODEL TEST_TRANS       PACKAGE TEST_TRANS      CONNECTED TO MODEL TEST_TRANS       PACKAGE RCHA             ON UNIT   1016 AT TIME STEP      3, STRESS PERIOD     20
 UBDSV06 SAVING              CHD IN MODEL TEST_TRANS       PACKAGE TEST_TRANS      CONNECTED TO MODEL TEST_TRANS       PACKAGE CHD              ON UNIT   1016 AT TIME STEP      3, STRESS PERIOD     20

 HEAD WILL BE SAVED ON UNIT 1017 AT END OF TIME STEP    3, STRESS PERIOD   20
 UBDSV1 SAVING           STO-SS ON UNIT   1016 AT TIME STEP      4, STRESS PERIOD     20
 UBDSV1 SAVING           STO-SY ON UNIT   1016 AT TIME STEP      4, STRESS PERIOD     20
 UBDSV1 SAVING     FLOW-JA-FACE ON UNIT   1016 AT TIME STEP      4, STRESS PERIOD     20
 UBDSV06 SAVING              RCH IN MODEL TEST_TRANS       PACKAGE TEST_TRANS      CONNECTED TO MODEL TEST_TRANS       PACKAGE RCHA             ON UNIT   1016 AT TIME STEP      4, STRESS PERIOD     20
 UBDSV06 SAVING              CHD IN MODEL TEST_TRANS       PACKAGE TEST_TRANS      CONNECTED TO MODEL TEST_TRANS       PACKAGE CHD              ON UNIT   1016 AT TIME STEP      4, STRESS PERIOD     20

 HEAD WILL BE SAVED ON UNIT 1017 AT END OF TIME STEP    4, STRESS PERIOD   20
 UBDSV1 SAVING           STO-SS ON UNIT   1016 AT TIME STEP      5, STRESS PERIOD     20
 UBDSV1 SAVING           STO-SY ON UNIT   1016 AT TIME STEP      5, STRESS PERIOD     20
 UBDSV1 SAVING     FLOW-JA-FACE ON UNIT   1016 AT TIME STEP      5, STRESS PERIOD     20
 UBDSV06 SAVING              RCH IN MODEL TEST_TRANS       PACKAGE TEST_TRANS      CONNECTED TO MODEL TEST_TRANS       PACKAGE RCHA             ON UNIT   1016 AT TIME STEP      5, STRESS PERIOD     20
 UBDSV06 SAVING              CHD IN MODEL TEST_TRANS       PACKAGE TEST_TRANS      CONNECTED TO MODEL TEST_TRANS       PACKAGE CHD              ON UNIT   1016 AT TIME STEP      5, STRESS PERIOD     20

 HEAD WILL BE SAVED ON UNIT 1017 AT END OF TIME STEP    5, STRESS PERIOD   20
 UBDSV1 SAVING           STO-SS ON UNIT   1016 AT TIME STEP      6, STRESS PERIOD     20
 UBDSV1 SAVING           STO-SY ON UNIT   1016 AT TIME STEP      6, STRESS PERIOD     20
 UBDSV1 SAVING     FLOW-JA-FACE ON UNIT   1016 AT TIME STEP      6, STRESS PERIOD     20
 UBDSV06 SAVING              RCH IN MODEL TEST_TRANS       PACKAGE TEST_TRANS      CONNECTED TO MODEL TEST_TRANS       PACKAGE RCHA             ON UNIT   1016 AT TIME STEP      6, STRESS PERIOD     20
 UBDSV06 SAVING              CHD IN MODEL TEST_TRANS       PACKAGE TEST_TRANS      CONNECTED TO MODEL TEST_TRANS       PACKAGE CHD              ON UNIT   1016 AT TIME STEP      6, STRESS PERIOD     20

 HEAD WILL BE SAVED ON UNIT 1017 AT END OF TIME STEP    6, STRESS PERIOD   20
 UBDSV1 SAVING           STO-SS ON UNIT   1016 AT TIME STEP      7, STRESS PERIOD     20
 UBDSV1 SAVING           STO-SY ON UNIT   1016 AT TIME STEP      7, STRESS PERIOD     20
 UBDSV1 SAVING     FLOW-JA-FACE ON UNIT   1016 AT TIME STEP      7, STRESS PERIOD     20
 UBDSV06 SAVING              RCH IN MODEL TEST_TRANS       PACKAGE TEST_TRANS      CONNECTED TO MODEL TEST_TRANS       PACKAGE RCHA             ON UNIT   1016 AT TIME STEP      7, STRESS PERIOD     20
 UBDSV06 SAVING              CHD IN MODEL TEST_TRANS       PACKAGE TEST_TRANS      CONNECTED TO MODEL TEST_TRANS       PACKAGE CHD              ON UNIT   1016 AT TIME STEP      7, STRESS PERIOD     20

 HEAD WILL BE SAVED ON UNIT 1017 AT END OF TIME STEP    7, STRESS PERIOD   20
 UBDSV1 SAVING           STO-SS ON UNIT   1016 AT TIME STEP      8, STRESS PERIOD     20
 UBDSV1 SAVING           STO-SY ON UNIT   1016 AT TIME STEP      8, STRESS PERIOD     20
 UBDSV1 SAVING     FLOW-JA-FACE ON UNIT   1016 AT TIME STEP      8, STRESS PERIOD     20
 UBDSV06 SAVING              RCH IN MODEL TEST_TRANS       PACKAGE TEST_TRANS      CONNECTED TO MODEL TEST_TRANS       PACKAGE RCHA             ON UNIT   1016 AT TIME STEP      8, STRESS PERIOD     20
 UBDSV06 SAVING              CHD IN MODEL TEST_TRANS       PACKAGE TEST_TRANS      CONNECTED TO MODEL TEST_TRANS       PACKAGE CHD              ON UNIT   1016 AT TIME STEP      8, STRESS PERIOD     20

 HEAD WILL BE SAVED ON UNIT 1017 AT END OF TIME STEP    8, STRESS PERIOD   20
 UBDSV1 SAVING           STO-SS ON UNIT   1016 AT TIME STEP      9, STRESS PERIOD     20
 UBDSV1 SAVING           STO-SY ON UNIT   1016 AT TIME STEP      9, STRESS PERIOD     20
 UBDSV1 SAVING     FLOW-JA-FACE ON UNIT   1016 AT TIME STEP      9, STRESS PERIOD     20
 UBDSV06 SAVING              RCH IN MODEL TEST_TRANS       PACKAGE TEST_TRANS      CONNECTED TO MODEL TEST_TRANS       PACKAGE RCHA             ON UNIT   1016 AT TIME STEP      9, STRESS PERIOD     20
 UBDSV06 SAVING              CHD IN MODEL TEST_TRANS       PACKAGE TEST_TRANS      CONNECTED TO MODEL TEST_TRANS       PACKAGE CHD              ON UNIT   1016 AT TIME STEP      9, STRESS PERIOD     20

 HEAD WILL BE SAVED ON UNIT 1017 AT END OF TIME STEP    9, STRESS PERIOD   20
 UBDSV1 SAVING           STO-SS ON UNIT   1016 AT TIME STEP     10, STRESS PERIOD     20
 UBDSV1 SAVING           STO-SY ON UNIT   1016 AT TIME STEP     10, STRESS PERIOD     20
 UBDSV1 SAVING     FLOW-JA-FACE ON UNIT   1016 AT TIME STEP     10, STRESS PERIOD     20
 UBDSV06 SAVING              RCH IN MODEL TEST_TRANS       PACKAGE TEST_TRANS      CONNECTED TO MODEL TEST_TRANS       PACKAGE RCHA             ON UNIT   1016 AT TIME STEP     10, STRESS PERIOD     20
 UBDSV06 SAVING              CHD IN MODEL TEST_TRANS       PACKAGE TEST_TRANS      CONNECTED TO MODEL TEST_TRANS       PACKAGE CHD              ON UNIT   1016 AT TIME STEP     10, STRESS PERIOD     20
1
  HEAD IN LAYER   1 AT END OF TIME STEP  10 IN STRESS PERIOD   20
  ---------------------------------------------------------------------------

            1           2           3           4           5           6           7           8           9          10
           11          12          13          14          15          16          17          18          19          20
           21          22          23          24          25          26          27          28          29          30
 ........................................................................................................................
   1    27.65       27.65       27.64       27.63       27.61       27.59       27.56       27.53       27.50       27.46    
        27.42       27.37       27.31       27.26       27.19       27.12       27.05       26.96       26.87       26.78    
        26.68       26.56       26.44       26.31       26.17       26.02       25.85       25.67       25.46       25.23    
   2    27.65       27.65       27.64       27.63       27.61       27.59       27.56       27.53       27.50       27.46    
        27.42       27.37       27.31       27.26       27.19       27.12       27.05       26.96       26.87       26.78    
        26.68       26.56       26.44       26.31       26.17       26.02       25.85       25.67       25.46       25.23    
   3    27.65       27.65       27.64       27.63       27.61       27.59       27.56       27.53       27.50       27.46    
        27.42       27.37       27.31       27.26       27.19       27.12       27.05       26.96       26.87       26.78    
        26.68       26.56       26.44       26.31       26.17       26.02       25.85       25.67       25.46       25.23    
   4    27.65       27.65       27.64       27.63       27.61       27.59       27.56       27.53       27.50       27.46    
        27.42       27.37       27.31       27.26       27.19       27.12       27.05       26.96       26.87       26.78    
        26.68       26.56       26.44       26.31       26.17       26.02       25.85       25.67       25.46       25.23    
   5    27.65       27.65       27.64       27.63       27.61       27.59       27.56       27.53       27.50       27.46    
        27.42       27.37       27.31       27.26       27.19       27.12       27.05       26.96       26.87       26.78    
        26.68       26.56       26.44       26.31       26.17       26.02       25.85       25.67       25.46       25.23    
   6    27.65       27.65       27.64       27.63       27.61       27.59       27.56       27.53       27.50       27.46    
        27.42       27.37       27.31       27.26       27.19       27.12       27.05       26.96       26.87       26.78    
        26.68       26.56       26.44       26.31       26.17       26.02       25.85       25.67       25.46       25.23    
   7    27.65       27.65       27.64       27.63       27.61       27.59       27.56       27.53       27.50       27.46    
        27.42       27.37       27.31       27.26       27.19       27.12       27.05       26.96       26.87       26.78    
        26.68       26.56       26.44       26.31       26.17       26.02       25.85       25.67       25.46       25.23    
   8    27.65       27.65       27.64       27.63       27.61       27.59       27.56       27.53       27.50       27.46    
        27.42       27.37       27.31       27.26       27.19       27.12       27.05       26.96       26.87       26.78    
        26.68       26.56       26.44       26.31       26.17       26.02       25.85       25.67       25.46       25.23    
   9    27.65       27.65       27.64       27.63       27.61       27.59       27.56       27.53       27.50       27.46    
        27.42       27.37       27.31       27.26       27.19       27.12       27.05       26.96       26.87       26.78    
        26.68       26.56       26.44       26.31       26.17       26.02       25.85       25.67       25.46       25.23    
  10    27.65       27.65       27.64       27.63       27.61       27.59       27.56       27.53       27.50       27.46    
        27.42       27.37       27.31       27.26       27.19       27.12       27.05       26.96       26.87       26.78    
        26.68       26.56       26.44       26.31       26.17       26.02       25.85       25.67       25.46       25.23    
  11    27.65       27.65       27.64       27.63       27.61       27.59       27.56       27.53       27.50       27.46    
        27.42       27.37       27.31       27.26       27.19       27.12       27.05       26.96       26.87       26.78    
        26.68       26.56       26.44       26.31       26.17       26.02       25.85       25.67       25.46       25.23    
  12    27.65       27.65       27.64       27.63       27.61       27.59       27.56       27.53       27.50       27.46    
        27.42       27.37       27.31       27.26       27.19       27.12       27.05       26.96       26.87       26.78    
        26.68       26.56       26.44       26.31       26.17       26.02       25.85       25.67       25.46       25.23    
  13    27.65       27.65       27.64       27.63       27.61       27.59       27.56       27.53       27.50       27.46    
        27.42       27.37       27.31       27.26       27.19       27.12       27.05       26.96       26.87       26.78    
        26.68       26.56       26.44       26.31       26.17       26.02       25.85       25.67       25.46       25.23    
  14    27.65       27.65       27.64       27.63       27.61       27.59       27.56       27.53       27.50       27.46    
        27.42       27.37       27.31       27.26       27.19       27.12       27.05       26.96       26.87       26.78    
        26.68       26.56       26.44       26.31       26.17       26.02       25.85       25.67       25.46       25.23    
  15    27.65       27.65       27.64       27.63       27.61       27.59       27.56       27.53       27.50       27.46    
        27.42       27.37       27.31       27.26       27.19       27.12       27.05       26.96       26.87       26.78    
        26.68       26.56       26.44       26.31       26.17       26.02       25.85       25.67       25.46       25.23    
  16    27.65       27.65       27.64       27.63       27.61       27.59       27.56       27.53       27.50       27.46    
        27.42       27.37       27.31       27.26       27.19       27.12       27.05       26.96       26.87       26.78    
        26.68       26.56       26.44       26.31       26.17       26.02       25.85       25.67       25.46       25.23    
  17    27.65       27.65       27.64       27.63       27.61       27.59       27.56       27.53       27.50       27.46    
        27.42       27.37       27.31       27.26       27.19       27.12       27.05       26.96       26.87       26.78    
        26.68       26.56       26.44       26.31       26.17       26.02       25.85       25.67       25.46       25.23    
  18    27.65       27.65       27.64       27.63       27.61       27.59       27.56       27.53       27.50       27.46    
        27.42       27.37       27.31       27.26       27.19       27.12       27.05       26.96       26.87       26.78    
        26.68       26.56       26.44       26.31       26.17       26.02       25.85       25.67       25.46       25.23    
  19    27.65       27.65       27.64       27.63       27.61       27.59       27.56       27.53       27.50       27.46    
        27.42       27.37       27.31       27.26       27.19       27.12       27.05       26.96       26.87       26.78    
        26.68       26.56       26.44       26.31       26.17       26.02       25.85       25.67       25.46       25.23    
  20    27.65       27.65       27.64       27.63       27.61       27.59       27.56       27.53       27.50       27.46    
        27.42       27.37       27.31       27.26       27.19       27.12       27.05       26.96       26.87       26.78    
        26.68       26.56       26.44       26.31       26.17       26.02       25.85       25.67       25.46       25.23    
  21    27.65       27.65       27.64       27.63       27.61       27.59       27.56       27.53       27.50       27.46    
        27.42       27.37       27.31       27.26       27.19       27.12       27.05       26.96       26.87       26.78    
        26.68       26.56       26.44       26.31       26.17       26.02       25.85       25.67       25.46       25.23    
  22    27.65       27.65       27.64       27.63       27.61       27.59       27.56       27.53       27.50       27.46    
        27.42       27.37       27.31       27.26       27.19       27.12       27.05       26.96       26.87       26.78    
        26.68       26.56       26.44       26.31       26.17       26.02       25.85       25.67       25.46       25.23    
  23    27.65       27.65       27.64       27.63       27.61       27.59       27.56       27.53       27.50       27.46    
        27.42       27.37       27.31       27.26       27.19       27.12       27.05       26.96       26.87       26.78    
        26.68       26.56       26.44       26.31       26.17       26.02       25.85       25.67       25.46       25.23    
  24    27.65       27.65       27.64       27.63       27.61       27.59       27.56       27.53       27.50       27.46    
        27.42       27.37       27.31       27.26       27.19       27.12       27.05       26.96       26.87       26.78    
        26.68       26.56       26.44       26.31       26.17       26.02       25.85       25.67       25.46       25.23    
  25    27.65       27.65       27.64       27.63       27.61       27.59       27.56       27.53       27.50       27.46    
        27.42       27.37       27.31       27.26       27.19       27.12       27.05       26.96       26.87       26.78    
        26.68       26.56       26.44       26.31       26.17       26.02       25.85       25.67       25.46       25.23    
  26    27.65       27.65       27.64       27.63       27.61       27.59       27.56       27.53       27.50       27.46    
        27.42       27.37       27.31       27.26       27.19       27.12       27.05       26.96       26.87       26.78    
        26.68       26.56       26.44       26.31       26.17       26.02       25.85       25.67       25.46       25.23    
  27    27.65       27.65       27.64       27.63       27.61       27.59       27.56       27.53       27.50       27.46    
        27.42       27.37       27.31       27.26       27.19       27.12       27.05       26.96       26.87       26.78    
        26.68       26.56       26.44       26.31       26.17       26.02       25.85       25.67       25.46       25.23    
  28    27.65       27.65       27.64       27.63       27.61       27.59       27.56       27.53       27.50       27.46    
        27.42       27.37       27.31       27.26       27.19       27.12       27.05       26.96       26.87       26.78    
        26.68       26.56       26.44       26.31       26.17       26.02       25.85       25.67       25.46       25.23    
  29    27.65       27.65       27.64       27.63       27.61       27.59       27.56       27.53       27.50       27.46    
        27.42       27.37       27.31       27.26       27.19       27.12       27.05       26.96       26.87       26.78    
        26.68       26.56       26.44       26.31       26.17       26.02       25.85       25.67       25.46       25.23    
  30    27.65       27.65       27.64       27.63       27.61       27.59       27.56       27.53       27.50       27.46    
        27.42       27.37       27.31       27.26       27.19       27.12       27.05       26.96       26.87       26.78    
        26.68       26.56       26.44       26.31       26.17       26.02       25.85       25.67       25.46       25.23    

 HEAD WILL BE SAVED ON UNIT 1017 AT END OF TIME STEP   10, STRESS PERIOD   20


  VOLUME BUDGET FOR ENTIRE MODEL AT END OF TIME STEP   10, STRESS PERIOD  20
  ---------------------------------------------------------------------------------------------------

     CUMULATIVE VOLUME      L**3       RATES FOR THIS TIME STEP      L**3/T          PACKAGE NAME    
     ------------------                 ------------------------                     ----------------

           IN:                                      IN:
           ---                                      ---
              STO-SS =          38.3554                STO-SS =       6.7819E-02     STORAGE         
              STO-SY =       24153.4202                STO-SY =          43.3664     STORAGE         
                 RCH =       88906.8843                   RCH =          95.3424     RCHA            
                 CHD =           0.0000                   CHD =           0.0000     CHD             

            TOTAL IN =      113098.6600              TOTAL IN =         138.7766

          OUT:                                     OUT:
          ----                                     ----
              STO-SS =          17.4630                STO-SS =           0.0000     STORAGE         
              STO-SY =       11202.6563                STO-SY =           0.0000     STORAGE         
                 RCH =           0.0000                   RCH =           0.0000     RCHA            
                 CHD =      101877.4114                   CHD =         138.7739     CHD             

           TOTAL OUT =      113097.5307             TOTAL OUT =         138.7739

            IN - OUT =           1.1293              IN - OUT =       2.7496E-03

 PERCENT DISCREPANCY =           0.00     PERCENT DISCREPANCY =           0.00




         TIME SUMMARY AT END OF TIME STEP   10 IN STRESS PERIOD   20
                    SECONDS     MINUTES      HOURS       DAYS        YEARS
                    -----------------------------------------------------------
   TIME STEP LENGTH 2.59200E+05  4320.0      72.000      3.0000     8.21355E-03
 STRESS PERIOD TIME 2.59200E+06  43200.      720.00      30.000     8.21355E-02
         TOTAL TIME 4.93344E+07 8.22240E+05  13704.      571.00      1.5633    

 OUTPUT CONTROL FOR STRESS PERIOD 21 IS REPEATED USING SETTINGS FROM A PREVIOUS STRESS PERIOD.


 STRESS PERIOD 21 IS TRANSIENT


                 RECHARGE =  0.1643840E-02
 UBDSV1 SAVING           STO-SS ON UNIT   1016 AT TIME STEP      1, STRESS PERIOD     21
 UBDSV1 SAVING           STO-SY ON UNIT   1016 AT TIME STEP      1, STRESS PERIOD     21
 UBDSV1 SAVING     FLOW-JA-FACE ON UNIT   1016 AT TIME STEP      1, STRESS PERIOD     21
 UBDSV06 SAVING              RCH IN MODEL TEST_TRANS       PACKAGE TEST_TRANS      CONNECTED TO MODEL TEST_TRANS       PACKAGE RCHA             ON UNIT   1016 AT TIME STEP      1, STRESS PERIOD     21
 UBDSV06 SAVING              CHD IN MODEL TEST_TRANS       PACKAGE TEST_TRANS      CONNECTED TO MODEL TEST_TRANS       PACKAGE CHD              ON UNIT   1016 AT TIME STEP      1, STRESS PERIOD     21
1
  HEAD IN LAYER   1 AT END OF TIME STEP   1 IN STRESS PERIOD   21
  ---------------------------------------------------------------------------

            1           2           3           4           5           6           7           8           9          10
           11          12          13          14          15          16          17          18          19          20
           21          22          23          24          25          26          27          28          29          30
 ........................................................................................................................
   1    27.65       27.65       27.64       27.63       27.61       27.59       27.56       27.53       27.50       27.46    
        27.42       27.37       27.31       27.26       27.19       27.12       27.05       26.96       26.88       26.78    
        26.68       26.56       26.44       26.31       26.17       26.01       25.84       25.65       25.42       25.15    
   2    27.65       27.65       27.64       27.63       27.61       27.59       27.56       27.53       27.50       27.46    
        27.42       27.37       27.31       27.26       27.19       27.12       27.05       26.96       26.88       26.78    
        26.68       26.56       26.44       26.31       26.17       26.01       25.84       25.65       25.42       25.15    
   3    27.65       27.65       27.64       27.63       27.61       27.59       27.56       27.53       27.50       27.46    
        27.42       27.37       27.31       27.26       27.19       27.12       27.05       26.96       26.88       26.78    
        26.68       26.56       26.44       26.31       26.17       26.01       25.84       25.65       25.42       25.15    
   4    27.65       27.65       27.64       27.63       27.61       27.59       27.56       27.53       27.50       27.46    
        27.42       27.37       27.31       27.26       27.19       27.12       27.05       26.96       26.88       26.78    
        26.68       26.56       26.44       26.31       26.17       26.01       25.84       25.65       25.42       25.15    
   5    27.65       27.65       27.64       27.63       27.61       27.59       27.56       27.53       27.50       27.46    
        27.42       27.37       27.31       27.26       27.19       27.12       27.05       26.96       26.88       26.78    
        26.68       26.56       26.44       26.31       26.17       26.01       25.84       25.65       25.42       25.15    
   6    27.65       27.65       27.64       27.63       27.61       27.59       27.56       27.53       27.50       27.46    
        27.42       27.37       27.31       27.26       27.19       27.12       27.05       26.96       26.88       26.78    
        26.68       26.56       26.44       26.31       26.17       26.01       25.84       25.65       25.42       25.15    
   7    27.65       27.65       27.64       27.63       27.61       27.59       27.56       27.53       27.50       27.46    
        27.42       27.37       27.31       27.26       27.19       27.12       27.05       26.96       26.88       26.78    
        26.68       26.56       26.44       26.31       26.17       26.01       25.84       25.65       25.42       25.15    
   8    27.65       27.65       27.64       27.63       27.61       27.59       27.56       27.53       27.50       27.46    
        27.42       27.37       27.31       27.26       27.19       27.12       27.05       26.96       26.88       26.78    
        26.68       26.56       26.44       26.31       26.17       26.01       25.84       25.65       25.42       25.15    
   9    27.65       27.65       27.64       27.63       27.61       27.59       27.56       27.53       27.50       27.46    
        27.42       27.37       27.31       27.26       27.19       27.12       27.05       26.96       26.88       26.78    
        26.68       26.56       26.44       26.31       26.17       26.01       25.84       25.65       25.42       25.15    
  10    27.65       27.65       27.64       27.63       27.61       27.59       27.56       27.53       27.50       27.46    
        27.42       27.37       27.31       27.26       27.19       27.12       27.05       26.96       26.88       26.78    
        26.68       26.56       26.44       26.31       26.17       26.01       25.84       25.65       25.42       25.15    
  11    27.65       27.65       27.64       27.63       27.61       27.59       27.56       27.53       27.50       27.46    
        27.42       27.37       27.31       27.26       27.19       27.12       27.05       26.96       26.88       26.78    
        26.68       26.56       26.44       26.31       26.17       26.01       25.84       25.65       25.42       25.15    
  12    27.65       27.65       27.64       27.63       27.61       27.59       27.56       27.53       27.50       27.46    
        27.42       27.37       27.31       27.26       27.19       27.12       27.05       26.96       26.88       26.78    
        26.68       26.56       26.44       26.31       26.17       26.01       25.84       25.65       25.42       25.15    
  13    27.65       27.65       27.64       27.63       27.61       27.59       27.56       27.53       27.50       27.46    
        27.42       27.37       27.31       27.26       27.19       27.12       27.05       26.96       26.88       26.78    
        26.68       26.56       26.44       26.31       26.17       26.01       25.84       25.65       25.42       25.15    
  14    27.65       27.65       27.64       27.63       27.61       27.59       27.56       27.53       27.50       27.46    
        27.42       27.37       27.31       27.26       27.19       27.12       27.05       26.96       26.88       26.78    
        26.68       26.56       26.44       26.31       26.17       26.01       25.84       25.65       25.42       25.15    
  15    27.65       27.65       27.64       27.63       27.61       27.59       27.56       27.53       27.50       27.46    
        27.42       27.37       27.31       27.26       27.19       27.12       27.05       26.96       26.88       26.78    
        26.68       26.56       26.44       26.31       26.17       26.01       25.84       25.65       25.42       25.15    
  16    27.65       27.65       27.64       27.63       27.61       27.59       27.56       27.53       27.50       27.46    
        27.42       27.37       27.31       27.26       27.19       27.12       27.05       26.96       26.88       26.78    
        26.68       26.56       26.44       26.31       26.17       26.01       25.84       25.65       25.42       25.15    
  17    27.65       27.65       27.64       27.63       27.61       27.59       27.56       27.53       27.50       27.46    
        27.42       27.37       27.31       27.26       27.19       27.12       27.05       26.96       26.88       26.78    
        26.68       26.56       26.44       26.31       26.17       26.01       25.84       25.65       25.42       25.15    
  18    27.65       27.65       27.64       27.63       27.61       27.59       27.56       27.53       27.50       27.46    
        27.42       27.37       27.31       27.26       27.19       27.12       27.05       26.96       26.88       26.78    
        26.68       26.56       26.44       26.31       26.17       26.01       25.84       25.65       25.42       25.15    
  19    27.65       27.65       27.64       27.63       27.61       27.59       27.56       27.53       27.50       27.46    
        27.42       27.37       27.31       27.26       27.19       27.12       27.05       26.96       26.88       26.78    
        26.68       26.56       26.44       26.31       26.17       26.01       25.84       25.65       25.42       25.15    
  20    27.65       27.65       27.64       27.63       27.61       27.59       27.56       27.53       27.50       27.46    
        27.42       27.37       27.31       27.26       27.19       27.12       27.05       26.96       26.88       26.78    
        26.68       26.56       26.44       26.31       26.17       26.01       25.84       25.65       25.42       25.15    
  21    27.65       27.65       27.64       27.63       27.61       27.59       27.56       27.53       27.50       27.46    
        27.42       27.37       27.31       27.26       27.19       27.12       27.05       26.96       26.88       26.78    
        26.68       26.56       26.44       26.31       26.17       26.01       25.84       25.65       25.42       25.15    
  22    27.65       27.65       27.64       27.63       27.61       27.59       27.56       27.53       27.50       27.46    
        27.42       27.37       27.31       27.26       27.19       27.12       27.05       26.96       26.88       26.78    
        26.68       26.56       26.44       26.31       26.17       26.01       25.84       25.65       25.42       25.15    
  23    27.65       27.65       27.64       27.63       27.61       27.59       27.56       27.53       27.50       27.46    
        27.42       27.37       27.31       27.26       27.19       27.12       27.05       26.96       26.88       26.78    
        26.68       26.56       26.44       26.31       26.17       26.01       25.84       25.65       25.42       25.15    
  24    27.65       27.65       27.64       27.63       27.61       27.59       27.56       27.53       27.50       27.46    
        27.42       27.37       27.31       27.26       27.19       27.12       27.05       26.96       26.88       26.78    
        26.68       26.56       26.44       26.31       26.17       26.01       25.84       25.65       25.42       25.15    
  25    27.65       27.65       27.64       27.63       27.61       27.59       27.56       27.53       27.50       27.46    
        27.42       27.37       27.31       27.26       27.19       27.12       27.05       26.96       26.88       26.78    
        26.68       26.56       26.44       26.31       26.17       26.01       25.84       25.65       25.42       25.15    
  26    27.65       27.65       27.64       27.63       27.61       27.59       27.56       27.53       27.50       27.46    
        27.42       27.37       27.31       27.26       27.19       27.12       27.05       26.96       26.88       26.78    
        26.68       26.56       26.44       26.31       26.17       26.01       25.84       25.65       25.42       25.15    
  27    27.65       27.65       27.64       27.63       27.61       27.59       27.56       27.53       27.50       27.46    
        27.42       27.37       27.31       27.26       27.19       27.12       27.05       26.96       26.88       26.78    
        26.68       26.56       26.44       26.31       26.17       26.01       25.84       25.65       25.42       25.15    
  28    27.65       27.65       27.64       27.63       27.61       27.59       27.56       27.53       27.50       27.46    
        27.42       27.37       27.31       27.26       27.19       27.12       27.05       26.96       26.88       26.78    
        26.68       26.56       26.44       26.31       26.17       26.01       25.84       25.65       25.42       25.15    
  29    27.65       27.65       27.64       27.63       27.61       27.59       27.56       27.53       27.50       27.46    
        27.42       27.37       27.31       27.26       27.19       27.12       27.05       26.96       26.88       26.78    
        26.68       26.56       26.44       26.31       26.17       26.01       25.84       25.65       25.42       25.15    
  30    27.65       27.65       27.64       27.63       27.61       27.59       27.56       27.53       27.50       27.46    
        27.42       27.37       27.31       27.26       27.19       27.12       27.05       26.96       26.88       26.78    
        26.68       26.56       26.44       26.31       26.17       26.01       25.84       25.65       25.42       25.15    

 HEAD WILL BE SAVED ON UNIT 1017 AT END OF TIME STEP    1, STRESS PERIOD   21



         TIME SUMMARY AT END OF TIME STEP    1 IN STRESS PERIOD   21
                    SECONDS     MINUTES      HOURS       DAYS        YEARS
                    -----------------------------------------------------------
   TIME STEP LENGTH 2.59200E+05  4320.0      72.000      3.0000     8.21355E-03
 STRESS PERIOD TIME 2.59200E+05  4320.0      72.000      3.0000     8.21355E-03
         TOTAL TIME 4.95936E+07 8.26560E+05  13776.      574.00      1.5715    
 UBDSV1 SAVING           STO-SS ON UNIT   1016 AT TIME STEP      2, STRESS PERIOD     21
 UBDSV1 SAVING           STO-SY ON UNIT   1016 AT TIME STEP      2, STRESS PERIOD     21
 UBDSV1 SAVING     FLOW-JA-FACE ON UNIT   1016 AT TIME STEP      2, STRESS PERIOD     21
 UBDSV06 SAVING              RCH IN MODEL TEST_TRANS       PACKAGE TEST_TRANS      CONNECTED TO MODEL TEST_TRANS       PACKAGE RCHA             ON UNIT   1016 AT TIME STEP      2, STRESS PERIOD     21
 UBDSV06 SAVING              CHD IN MODEL TEST_TRANS       PACKAGE TEST_TRANS      CONNECTED TO MODEL TEST_TRANS       PACKAGE CHD              ON UNIT   1016 AT TIME STEP      2, STRESS PERIOD     21

 HEAD WILL BE SAVED ON UNIT 1017 AT END OF TIME STEP    2, STRESS PERIOD   21
 UBDSV1 SAVING           STO-SS ON UNIT   1016 AT TIME STEP      3, STRESS PERIOD     21
 UBDSV1 SAVING           STO-SY ON UNIT   1016 AT TIME STEP      3, STRESS PERIOD     21
 UBDSV1 SAVING     FLOW-JA-FACE ON UNIT   1016 AT TIME STEP      3, STRESS PERIOD     21
 UBDSV06 SAVING              RCH IN MODEL TEST_TRANS       PACKAGE TEST_TRANS      CONNECTED TO MODEL TEST_TRANS       PACKAGE RCHA             ON UNIT   1016 AT TIME STEP      3, STRESS PERIOD     21
 UBDSV06 SAVING              CHD IN MODEL TEST_TRANS       PACKAGE TEST_TRANS      CONNECTED TO MODEL TEST_TRANS       PACKAGE CHD              ON UNIT   1016 AT TIME STEP      3, STRESS PERIOD     21

 HEAD WILL BE SAVED ON UNIT 1017 AT END OF TIME STEP    3, STRESS PERIOD   21
 UBDSV1 SAVING           STO-SS ON UNIT   1016 AT TIME STEP      4, STRESS PERIOD     21
 UBDSV1 SAVING           STO-SY ON UNIT   1016 AT TIME STEP      4, STRESS PERIOD     21
 UBDSV1 SAVING     FLOW-JA-FACE ON UNIT   1016 AT TIME STEP      4, STRESS PERIOD     21
 UBDSV06 SAVING              RCH IN MODEL TEST_TRANS       PACKAGE TEST_TRANS      CONNECTED TO MODEL TEST_TRANS       PACKAGE RCHA             ON UNIT   1016 AT TIME STEP      4, STRESS PERIOD     21
 UBDSV06 SAVING              CHD IN MODEL TEST_TRANS       PACKAGE TEST_TRANS      CONNECTED TO MODEL TEST_TRANS       PACKAGE CHD              ON UNIT   1016 AT TIME STEP      4, STRESS PERIOD     21

 HEAD WILL BE SAVED ON UNIT 1017 AT END OF TIME STEP    4, STRESS PERIOD   21
 UBDSV1 SAVING           STO-SS ON UNIT   1016 AT TIME STEP      5, STRESS PERIOD     21
 UBDSV1 SAVING           STO-SY ON UNIT   1016 AT TIME STEP      5, STRESS PERIOD     21
 UBDSV1 SAVING     FLOW-JA-FACE ON UNIT   1016 AT TIME STEP      5, STRESS PERIOD     21
 UBDSV06 SAVING              RCH IN MODEL TEST_TRANS       PACKAGE TEST_TRANS      CONNECTED TO MODEL TEST_TRANS       PACKAGE RCHA             ON UNIT   1016 AT TIME STEP      5, STRESS PERIOD     21
 UBDSV06 SAVING              CHD IN MODEL TEST_TRANS       PACKAGE TEST_TRANS      CONNECTED TO MODEL TEST_TRANS       PACKAGE CHD              ON UNIT   1016 AT TIME STEP      5, STRESS PERIOD     21

 HEAD WILL BE SAVED ON UNIT 1017 AT END OF TIME STEP    5, STRESS PERIOD   21
 UBDSV1 SAVING           STO-SS ON UNIT   1016 AT TIME STEP      6, STRESS PERIOD     21
 UBDSV1 SAVING           STO-SY ON UNIT   1016 AT TIME STEP      6, STRESS PERIOD     21
 UBDSV1 SAVING     FLOW-JA-FACE ON UNIT   1016 AT TIME STEP      6, STRESS PERIOD     21
 UBDSV06 SAVING              RCH IN MODEL TEST_TRANS       PACKAGE TEST_TRANS      CONNECTED TO MODEL TEST_TRANS       PACKAGE RCHA             ON UNIT   1016 AT TIME STEP      6, STRESS PERIOD     21
 UBDSV06 SAVING              CHD IN MODEL TEST_TRANS       PACKAGE TEST_TRANS      CONNECTED TO MODEL TEST_TRANS       PACKAGE CHD              ON UNIT   1016 AT TIME STEP      6, STRESS PERIOD     21

 HEAD WILL BE SAVED ON UNIT 1017 AT END OF TIME STEP    6, STRESS PERIOD   21
 UBDSV1 SAVING           STO-SS ON UNIT   1016 AT TIME STEP      7, STRESS PERIOD     21
 UBDSV1 SAVING           STO-SY ON UNIT   1016 AT TIME STEP      7, STRESS PERIOD     21
 UBDSV1 SAVING     FLOW-JA-FACE ON UNIT   1016 AT TIME STEP      7, STRESS PERIOD     21
 UBDSV06 SAVING              RCH IN MODEL TEST_TRANS       PACKAGE TEST_TRANS      CONNECTED TO MODEL TEST_TRANS       PACKAGE RCHA             ON UNIT   1016 AT TIME STEP      7, STRESS PERIOD     21
 UBDSV06 SAVING              CHD IN MODEL TEST_TRANS       PACKAGE TEST_TRANS      CONNECTED TO MODEL TEST_TRANS       PACKAGE CHD              ON UNIT   1016 AT TIME STEP      7, STRESS PERIOD     21

 HEAD WILL BE SAVED ON UNIT 1017 AT END OF TIME STEP    7, STRESS PERIOD   21
 UBDSV1 SAVING           STO-SS ON UNIT   1016 AT TIME STEP      8, STRESS PERIOD     21
 UBDSV1 SAVING           STO-SY ON UNIT   1016 AT TIME STEP      8, STRESS PERIOD     21
 UBDSV1 SAVING     FLOW-JA-FACE ON UNIT   1016 AT TIME STEP      8, STRESS PERIOD     21
 UBDSV06 SAVING              RCH IN MODEL TEST_TRANS       PACKAGE TEST_TRANS      CONNECTED TO MODEL TEST_TRANS       PACKAGE RCHA             ON UNIT   1016 AT TIME STEP      8, STRESS PERIOD     21
 UBDSV06 SAVING              CHD IN MODEL TEST_TRANS       PACKAGE TEST_TRANS      CONNECTED TO MODEL TEST_TRANS       PACKAGE CHD              ON UNIT   1016 AT TIME STEP      8, STRESS PERIOD     21

 HEAD WILL BE SAVED ON UNIT 1017 AT END OF TIME STEP    8, STRESS PERIOD   21
 UBDSV1 SAVING           STO-SS ON UNIT   1016 AT TIME STEP      9, STRESS PERIOD     21
 UBDSV1 SAVING           STO-SY ON UNIT   1016 AT TIME STEP      9, STRESS PERIOD     21
 UBDSV1 SAVING     FLOW-JA-FACE ON UNIT   1016 AT TIME STEP      9, STRESS PERIOD     21
 UBDSV06 SAVING              RCH IN MODEL TEST_TRANS       PACKAGE TEST_TRANS      CONNECTED TO MODEL TEST_TRANS       PACKAGE RCHA             ON UNIT   1016 AT TIME STEP      9, STRESS PERIOD     21
 UBDSV06 SAVING              CHD IN MODEL TEST_TRANS       PACKAGE TEST_TRANS      CONNECTED TO MODEL TEST_TRANS       PACKAGE CHD              ON UNIT   1016 AT TIME STEP      9, STRESS PERIOD     21

 HEAD WILL BE SAVED ON UNIT 1017 AT END OF TIME STEP    9, STRESS PERIOD   21
 UBDSV1 SAVING           STO-SS ON UNIT   1016 AT TIME STEP     10, STRESS PERIOD     21
 UBDSV1 SAVING           STO-SY ON UNIT   1016 AT TIME STEP     10, STRESS PERIOD     21
 UBDSV1 SAVING     FLOW-JA-FACE ON UNIT   1016 AT TIME STEP     10, STRESS PERIOD     21
 UBDSV06 SAVING              RCH IN MODEL TEST_TRANS       PACKAGE TEST_TRANS      CONNECTED TO MODEL TEST_TRANS       PACKAGE RCHA             ON UNIT   1016 AT TIME STEP     10, STRESS PERIOD     21
 UBDSV06 SAVING              CHD IN MODEL TEST_TRANS       PACKAGE TEST_TRANS      CONNECTED TO MODEL TEST_TRANS       PACKAGE CHD              ON UNIT   1016 AT TIME STEP     10, STRESS PERIOD     21
1
  HEAD IN LAYER   1 AT END OF TIME STEP  10 IN STRESS PERIOD   21
  ---------------------------------------------------------------------------

            1           2           3           4           5           6           7           8           9          10
           11          12          13          14          15          16          17          18          19          20
           21          22          23          24          25          26          27          28          29          30
 ........................................................................................................................
   1    27.65       27.64       27.64       27.62       27.61       27.58       27.56       27.53       27.50       27.46    
        27.41       27.36       27.31       27.25       27.19       27.12       27.04       26.96       26.87       26.77    
        26.67       26.55       26.43       26.29       26.15       25.99       25.81       25.62       25.40       25.15    
   2    27.65       27.64       27.64       27.62       27.61       27.58       27.56       27.53       27.50       27.46    
        27.41       27.36       27.31       27.25       27.19       27.12       27.04       26.96       26.87       26.77    
        26.67       26.55       26.43       26.29       26.15       25.99       25.81       25.62       25.40       25.15    
   3    27.65       27.64       27.64       27.62       27.61       27.58       27.56       27.53       27.50       27.46    
        27.41       27.36       27.31       27.25       27.19       27.12       27.04       26.96       26.87       26.77    
        26.67       26.55       26.43       26.29       26.15       25.99       25.81       25.62       25.40       25.15    
   4    27.65       27.64       27.64       27.62       27.61       27.58       27.56       27.53       27.50       27.46    
        27.41       27.36       27.31       27.25       27.19       27.12       27.04       26.96       26.87       26.77    
        26.67       26.55       26.43       26.29       26.15       25.99       25.81       25.62       25.40       25.15    
   5    27.65       27.64       27.64       27.62       27.61       27.58       27.56       27.53       27.50       27.46    
        27.41       27.36       27.31       27.25       27.19       27.12       27.04       26.96       26.87       26.77    
        26.67       26.55       26.43       26.29       26.15       25.99       25.81       25.62       25.40       25.15    
   6    27.65       27.64       27.64       27.62       27.61       27.58       27.56       27.53       27.49       27.46    
        27.41       27.36       27.31       27.25       27.19       27.12       27.04       26.96       26.87       26.77    
        26.67       26.55       26.43       26.29       26.15       25.99       25.81       25.62       25.40       25.15    
   7    27.65       27.64       27.64       27.62       27.61       27.58       27.56       27.53       27.49       27.46    
        27.41       27.36       27.31       27.25       27.19       27.12       27.04       26.96       26.87       26.77    
        26.67       26.55       26.43       26.29       26.15       25.99       25.81       25.62       25.40       25.15    
   8    27.65       27.64       27.64       27.62       27.61       27.58       27.56       27.53       27.49       27.46    
        27.41       27.36       27.31       27.25       27.19       27.12       27.04       26.96       26.87       26.77    
        26.67       26.55       26.43       26.29       26.15       25.99       25.81       25.62       25.40       25.15    
   9    27.65       27.64       27.64       27.62       27.61       27.58       27.56       27.53       27.49       27.46    
        27.41       27.36       27.31       27.25       27.19       27.12       27.04       26.96       26.87       26.77    
        26.67       26.55       26.43       26.29       26.15       25.99       25.81       25.62       25.40       25.15    
  10    27.65       27.64       27.64       27.62       27.61       27.58       27.56       27.53       27.49       27.46    
        27.41       27.36       27.31       27.25       27.19       27.12       27.04       26.96       26.87       26.77    
        26.67       26.55       26.43       26.29       26.15       25.99       25.81       25.62       25.40       25.15    
  11    27.65       27.64       27.64       27.62       27.61       27.58       27.56       27.53       27.49       27.46    
        27.41       27.36       27.31       27.25       27.19       27.12       27.04       26.96       26.87       26.77    
        26.67       26.55       26.43       26.29       26.15       25.99       25.81       25.62       25.40       25.15    
  12    27.65       27.64       27.64       27.62       27.61       27.58       27.56       27.53       27.49       27.46    
        27.41       27.36       27.31       27.25       27.19       27.12       27.04       26.96       26.87       26.77    
        26.67       26.55       26.43       26.29       26.15       25.99       25.81       25.62       25.40       25.15    
  13    27.65       27.64       27.64       27.62       27.61       27.58       27.56       27.53       27.49       27.46    
        27.41       27.36       27.31       27.25       27.19       27.12       27.04       26.96       26.87       26.77    
        26.67       26.55       26.43       26.29       26.15       25.99       25.81       25.62       25.40       25.15    
  14    27.65       27.64       27.64       27.62       27.61       27.58       27.56       27.53       27.49       27.46    
        27.41       27.36       27.31       27.25       27.19       27.12       27.04       26.96       26.87       26.77    
        26.67       26.55       26.43       26.29       26.15       25.99       25.81       25.62       25.40       25.15    
  15    27.65       27.64       27.64       27.62       27.61       27.58       27.56       27.53       27.50       27.46    
        27.41       27.36       27.31       27.25       27.19       27.12       27.04       26.96       26.87       26.77    
        26.67       26.55       26.43       26.29       26.15       25.99       25.81       25.62       25.40       25.15    
  16    27.65       27.64       27.64       27.62       27.61       27.58       27.56       27.53       27.50       27.46    
        27.41       27.36       27.31       27.25       27.19       27.12       27.04       26.96       26.87       26.77    
        26.67       26.55       26.43       26.29       26.15       25.99       25.81       25.62       25.40       25.15    
  17    27.65       27.64       27.64       27.62       27.61       27.58       27.56       27.53       27.50       27.46    
        27.41       27.36       27.31       27.25       27.19       27.12       27.04       26.96       26.87       26.77    
        26.67       26.55       26.43       26.29       26.15       25.99       25.81       25.62       25.40       25.15    
  18    27.65       27.64       27.64       27.62       27.61       27.58       27.56       27.53       27.50       27.46    
        27.41       27.36       27.31       27.25       27.19       27.12       27.04       26.96       26.87       26.77    
        26.67       26.55       26.43       26.29       26.15       25.99       25.81       25.62       25.40       25.15    
  19    27.65       27.64       27.64       27.62       27.61       27.58       27.56       27.53       27.50       27.46    
        27.41       27.36       27.31       27.25       27.19       27.12       27.04       26.96       26.87       26.77    
        26.67       26.55       26.43       26.29       26.15       25.99       25.81       25.62       25.40       25.15    
  20    27.65       27.64       27.64       27.62       27.61       27.58       27.56       27.53       27.50       27.46    
        27.41       27.36       27.31       27.25       27.19       27.12       27.04       26.96       26.87       26.77    
        26.67       26.55       26.43       26.29       26.15       25.99       25.81       25.62       25.40       25.15    
  21    27.65       27.64       27.64       27.62       27.61       27.58       27.56       27.53       27.50       27.46    
        27.41       27.36       27.31       27.25       27.19       27.12       27.04       26.96       26.87       26.77    
        26.67       26.55       26.43       26.29       26.15       25.99       25.81       25.62       25.40       25.15    
  22    27.65       27.64       27.64       27.62       27.61       27.58       27.56       27.53       27.50       27.46    
        27.41       27.36       27.31       27.25       27.19       27.12       27.04       26.96       26.87       26.77    
        26.67       26.55       26.43       26.29       26.15       25.99       25.81       25.62       25.40       25.15    
  23    27.65       27.64       27.64       27.62       27.61       27.58       27.56       27.53       27.50       27.46    
        27.41       27.36       27.31       27.25       27.19       27.12       27.04       26.96       26.87       26.77    
        26.67       26.55       26.43       26.29       26.15       25.99       25.81       25.62       25.40       25.15    
  24    27.65       27.64       27.64       27.62       27.61       27.58       27.56       27.53       27.50       27.46    
        27.41       27.36       27.31       27.25       27.19       27.12       27.04       26.96       26.87       26.77    
        26.67       26.55       26.43       26.29       26.15       25.99       25.81       25.62       25.40       25.15    
  25    27.65       27.64       27.64       27.62       27.61       27.58       27.56       27.53       27.50       27.46    
        27.41       27.36       27.31       27.25       27.19       27.12       27.04       26.96       26.87       26.77    
        26.67       26.55       26.43       26.29       26.15       25.99       25.81       25.62       25.40       25.15    
  26    27.65       27.64       27.64       27.62       27.61       27.58       27.56       27.53       27.50       27.46    
        27.41       27.36       27.31       27.25       27.19       27.12       27.04       26.96       26.87       26.77    
        26.67       26.55       26.43       26.29       26.15       25.99       25.81       25.62       25.40       25.15    
  27    27.65       27.64       27.64       27.62       27.61       27.58       27.56       27.53       27.50       27.46    
        27.41       27.36       27.31       27.25       27.19       27.12       27.04       26.96       26.87       26.77    
        26.67       26.55       26.43       26.29       26.15       25.99       25.81       25.62       25.40       25.15    
  28    27.65       27.64       27.64       27.62       27.61       27.58       27.56       27.53       27.50       27.46    
        27.41       27.36       27.31       27.25       27.19       27.12       27.04       26.96       26.87       26.77    
        26.67       26.55       26.43       26.29       26.15       25.99       25.81       25.62       25.40       25.15    
  29    27.65       27.64       27.64       27.62       27.61       27.58       27.56       27.53       27.50       27.46    
        27.41       27.36       27.31       27.25       27.19       27.12       27.04       26.96       26.87       26.77    
        26.67       26.55       26.43       26.29       26.15       25.99       25.81       25.62       25.40       25.15    
  30    27.65       27.64       27.64       27.62       27.61       27.58       27.56       27.53       27.49       27.46    
        27.41       27.36       27.31       27.25       27.19       27.12       27.04       26.96       26.87       26.77    
        26.67       26.55       26.43       26.29       26.15       25.99       25.81       25.62       25.40       25.15    

 HEAD WILL BE SAVED ON UNIT 1017 AT END OF TIME STEP   10, STRESS PERIOD   21


  VOLUME BUDGET FOR ENTIRE MODEL AT END OF TIME STEP   10, STRESS PERIOD  21
  ---------------------------------------------------------------------------------------------------

     CUMULATIVE VOLUME      L**3       RATES FOR THIS TIME STEP      L**3/T          PACKAGE NAME    
     ------------------                 ------------------------                     ----------------

           IN:                                      IN:
           ---                                      ---
              STO-SS =          38.6769                STO-SS =       6.3792E-03     STORAGE         
              STO-SY =       24370.6818                STO-SY =           4.1535     STORAGE         
                 RCH =       93197.3067                   RCH =         143.0141     RCHA            
                 CHD =           0.0000                   CHD =           0.0000     CHD             

            TOTAL IN =      117606.6654              TOTAL IN =         147.1740

          OUT:                                     OUT:
          ----                                     ----
              STO-SS =          17.4636                STO-SS =           0.0000     STORAGE         
              STO-SY =       11203.0409                STO-SY =           0.0000     STORAGE         
                 RCH =           0.0000                   RCH =           0.0000     RCHA            
                 CHD =      106384.7928                   CHD =         147.1654     CHD             

           TOTAL OUT =      117605.2973             TOTAL OUT =         147.1654

            IN - OUT =           1.3681              IN - OUT =       8.5899E-03

 PERCENT DISCREPANCY =           0.00     PERCENT DISCREPANCY =           0.01




         TIME SUMMARY AT END OF TIME STEP   10 IN STRESS PERIOD   21
                    SECONDS     MINUTES      HOURS       DAYS        YEARS
                    -----------------------------------------------------------
   TIME STEP LENGTH 2.59200E+05  4320.0      72.000      3.0000     8.21355E-03
 STRESS PERIOD TIME 2.59200E+06  43200.      720.00      30.000     8.21355E-02
         TOTAL TIME 5.19264E+07 8.65440E+05  14424.      601.00      1.6454    

 OUTPUT CONTROL FOR STRESS PERIOD 22 IS REPEATED USING SETTINGS FROM A PREVIOUS STRESS PERIOD.


 STRESS PERIOD 22 IS TRANSIENT


                 RECHARGE =  0.2191780E-02
 UBDSV1 SAVING           STO-SS ON UNIT   1016 AT TIME STEP      1, STRESS PERIOD     22
 UBDSV1 SAVING           STO-SY ON UNIT   1016 AT TIME STEP      1, STRESS PERIOD     22
 UBDSV1 SAVING     FLOW-JA-FACE ON UNIT   1016 AT TIME STEP      1, STRESS PERIOD     22
 UBDSV06 SAVING              RCH IN MODEL TEST_TRANS       PACKAGE TEST_TRANS      CONNECTED TO MODEL TEST_TRANS       PACKAGE RCHA             ON UNIT   1016 AT TIME STEP      1, STRESS PERIOD     22
 UBDSV06 SAVING              CHD IN MODEL TEST_TRANS       PACKAGE TEST_TRANS      CONNECTED TO MODEL TEST_TRANS       PACKAGE CHD              ON UNIT   1016 AT TIME STEP      1, STRESS PERIOD     22
1
  HEAD IN LAYER   1 AT END OF TIME STEP   1 IN STRESS PERIOD   22
  ---------------------------------------------------------------------------

            1           2           3           4           5           6           7           8           9          10
           11          12          13          14          15          16          17          18          19          20
           21          22          23          24          25          26          27          28          29          30
 ........................................................................................................................
   1    27.66       27.65       27.64       27.63       27.61       27.59       27.57       27.54       27.50       27.46    
        27.42       27.37       27.32       27.26       27.19       27.12       27.05       26.96       26.87       26.78    
        26.67       26.56       26.43       26.30       26.15       25.99       25.81       25.60       25.36       25.06    
   2    27.66       27.65       27.64       27.63       27.61       27.59       27.57       27.54       27.50       27.46    
        27.42       27.37       27.32       27.26       27.19       27.12       27.05       26.96       26.87       26.78    
        26.67       26.56       26.43       26.30       26.15       25.99       25.81       25.60       25.36       25.06    
   3    27.66       27.65       27.64       27.63       27.61       27.59       27.57       27.54       27.50       27.46    
        27.42       27.37       27.32       27.26       27.19       27.12       27.05       26.96       26.87       26.78    
        26.67       26.56       26.43       26.30       26.15       25.99       25.81       25.60       25.36       25.06    
   4    27.66       27.65       27.64       27.63       27.61       27.59       27.57       27.54       27.50       27.46    
        27.42       27.37       27.32       27.26       27.19       27.12       27.05       26.96       26.87       26.78    
        26.67       26.56       26.43       26.30       26.15       25.99       25.81       25.60       25.36       25.06    
   5    27.66       27.65       27.64       27.63       27.61       27.59       27.57       27.54       27.50       27.46    
        27.42       27.37       27.32       27.26       27.19       27.12       27.05       26.96       26.87       26.78    
        26.67       26.56       26.43       26.30       26.15       25.99       25.81       25.60       25.36       25.06    
   6    27.66       27.65       27.64       27.63       27.61       27.59       27.57       27.54       27.50       27.46    
        27.42       27.37       27.32       27.26       27.19       27.12       27.05       26.96       26.87       26.78    
        26.67       26.56       26.43       26.30       26.15       25.99       25.81       25.60       25.36       25.06    
   7    27.66       27.65       27.64       27.63       27.61       27.59       27.57       27.54       27.50       27.46    
        27.42       27.37       27.32       27.26       27.19       27.12       27.05       26.96       26.87       26.78    
        26.67       26.56       26.43       26.30       26.15       25.99       25.81       25.60       25.36       25.06    
   8    27.66       27.65       27.64       27.63       27.61       27.59       27.57       27.54       27.50       27.46    
        27.42       27.37       27.32       27.26       27.19       27.12       27.05       26.96       26.87       26.78    
        26.67       26.56       26.43       26.30       26.15       25.99       25.81       25.60       25.36       25.06    
   9    27.66       27.65       27.64       27.63       27.61       27.59       27.57       27.54       27.50       27.46    
        27.42       27.37       27.32       27.26       27.19       27.12       27.05       26.96       26.87       26.78    
        26.67       26.56       26.43       26.30       26.15       25.99       25.81       25.60       25.36       25.06    
  10    27.66       27.65       27.64       27.63       27.61       27.59       27.57       27.54       27.50       27.46    
        27.42       27.37       27.32       27.26       27.19       27.12       27.05       26.96       26.87       26.78    
        26.67       26.56       26.43       26.30       26.15       25.99       25.81       25.60       25.36       25.06    
  11    27.66       27.65       27.64       27.63       27.61       27.59       27.57       27.54       27.50       27.46    
        27.42       27.37       27.32       27.26       27.19       27.12       27.05       26.96       26.87       26.78    
        26.67       26.56       26.43       26.30       26.15       25.99       25.81       25.60       25.36       25.06    
  12    27.66       27.65       27.64       27.63       27.61       27.59       27.57       27.54       27.50       27.46    
        27.42       27.37       27.32       27.26       27.19       27.12       27.05       26.96       26.87       26.78    
        26.67       26.56       26.43       26.30       26.15       25.99       25.81       25.60       25.36       25.06    
  13    27.66       27.65       27.64       27.63       27.61       27.59       27.57       27.54       27.50       27.46    
        27.42       27.37       27.32       27.26       27.19       27.12       27.05       26.96       26.87       26.78    
        26.67       26.56       26.43       26.30       26.15       25.99       25.81       25.60       25.36       25.06    
  14    27.66       27.65       27.64       27.63       27.61       27.59       27.57       27.54       27.50       27.46    
        27.42       27.37       27.32       27.26       27.19       27.12       27.05       26.96       26.87       26.78    
        26.67       26.56       26.43       26.30       26.15       25.99       25.81       25.60       25.36       25.06    
  15    27.66       27.65       27.64       27.63       27.61       27.59       27.57       27.54       27.50       27.46    
        27.42       27.37       27.32       27.26       27.19       27.12       27.05       26.96       26.87       26.78    
        26.67       26.56       26.43       26.30       26.15       25.99       25.81       25.60       25.36       25.06    
  16    27.66       27.65       27.64       27.63       27.61       27.59       27.57       27.54       27.50       27.46    
        27.42       27.37       27.32       27.26       27.19       27.12       27.05       26.96       26.87       26.78    
        26.67       26.56       26.43       26.30       26.15       25.99       25.81       25.60       25.36       25.06    
  17    27.66       27.65       27.64       27.63       27.61       27.59       27.57       27.54       27.50       27.46    
        27.42       27.37       27.32       27.26       27.19       27.12       27.05       26.96       26.87       26.78    
        26.67       26.56       26.43       26.30       26.15       25.99       25.81       25.60       25.36       25.06    
  18    27.66       27.65       27.64       27.63       27.61       27.59       27.57       27.54       27.50       27.46    
        27.42       27.37       27.32       27.26       27.19       27.12       27.05       26.96       26.87       26.78    
        26.67       26.56       26.43       26.30       26.15       25.99       25.81       25.60       25.36       25.06    
  19    27.66       27.65       27.64       27.63       27.61       27.59       27.57       27.54       27.50       27.46    
        27.42       27.37       27.32       27.26       27.19       27.12       27.05       26.96       26.87       26.78    
        26.67       26.56       26.43       26.30       26.15       25.99       25.81       25.60       25.36       25.06    
  20    27.66       27.65       27.64       27.63       27.61       27.59       27.57       27.54       27.50       27.46    
        27.42       27.37       27.32       27.26       27.19       27.12       27.05       26.96       26.87       26.78    
        26.67       26.56       26.43       26.30       26.15       25.99       25.81       25.60       25.36       25.06    
  21    27.66       27.65       27.64       27.63       27.61       27.59       27.57       27.54       27.50       27.46    
        27.42       27.37       27.32       27.26       27.19       27.12       27.05       26.96       26.87       26.78    
        26.67       26.56       26.43       26.30       26.15       25.99       25.81       25.60       25.36       25.06    
  22    27.66       27.65       27.64       27.63       27.61       27.59       27.57       27.54       27.50       27.46    
        27.42       27.37       27.32       27.26       27.19       27.12       27.05       26.96       26.87       26.78    
        26.67       26.56       26.43       26.30       26.15       25.99       25.81       25.60       25.36       25.06    
  23    27.66       27.65       27.64       27.63       27.61       27.59       27.57       27.54       27.50       27.46    
        27.42       27.37       27.32       27.26       27.19       27.12       27.05       26.96       26.87       26.78    
        26.67       26.56       26.43       26.30       26.15       25.99       25.81       25.60       25.36       25.06    
  24    27.66       27.65       27.64       27.63       27.61       27.59       27.57       27.54       27.50       27.46    
        27.42       27.37       27.32       27.26       27.19       27.12       27.05       26.96       26.87       26.78    
        26.67       26.56       26.43       26.30       26.15       25.99       25.81       25.60       25.36       25.06    
  25    27.66       27.65       27.64       27.63       27.61       27.59       27.57       27.54       27.50       27.46    
        27.42       27.37       27.32       27.26       27.19       27.12       27.05       26.96       26.87       26.78    
        26.67       26.56       26.43       26.30       26.15       25.99       25.81       25.60       25.36       25.06    
  26    27.66       27.65       27.64       27.63       27.61       27.59       27.57       27.54       27.50       27.46    
        27.42       27.37       27.32       27.26       27.19       27.12       27.05       26.96       26.87       26.78    
        26.67       26.56       26.43       26.30       26.15       25.99       25.81       25.60       25.36       25.06    
  27    27.66       27.65       27.64       27.63       27.61       27.59       27.57       27.54       27.50       27.46    
        27.42       27.37       27.32       27.26       27.19       27.12       27.05       26.96       26.87       26.78    
        26.67       26.56       26.43       26.30       26.15       25.99       25.81       25.60       25.36       25.06    
  28    27.66       27.65       27.64       27.63       27.61       27.59       27.57       27.54       27.50       27.46    
        27.42       27.37       27.32       27.26       27.19       27.12       27.05       26.96       26.87       26.78    
        26.67       26.56       26.43       26.30       26.15       25.99       25.81       25.60       25.36       25.06    
  29    27.66       27.65       27.64       27.63       27.61       27.59       27.57       27.54       27.50       27.46    
        27.42       27.37       27.32       27.26       27.19       27.12       27.05       26.96       26.87       26.78    
        26.67       26.56       26.43       26.30       26.15       25.99       25.81       25.60       25.36       25.06    
  30    27.66       27.65       27.64       27.63       27.61       27.59       27.57       27.54       27.50       27.46    
        27.42       27.37       27.32       27.26       27.19       27.12       27.05       26.96       26.87       26.78    
        26.67       26.56       26.43       26.30       26.15       25.99       25.81       25.60       25.36       25.06    

 HEAD WILL BE SAVED ON UNIT 1017 AT END OF TIME STEP    1, STRESS PERIOD   22



         TIME SUMMARY AT END OF TIME STEP    1 IN STRESS PERIOD   22
                    SECONDS     MINUTES      HOURS       DAYS        YEARS
                    -----------------------------------------------------------
   TIME STEP LENGTH 2.59200E+05  4320.0      72.000      3.0000     8.21355E-03
 STRESS PERIOD TIME 2.59200E+05  4320.0      72.000      3.0000     8.21355E-03
         TOTAL TIME 5.21856E+07 8.69760E+05  14496.      604.00      1.6537    
 UBDSV1 SAVING           STO-SS ON UNIT   1016 AT TIME STEP      2, STRESS PERIOD     22
 UBDSV1 SAVING           STO-SY ON UNIT   1016 AT TIME STEP      2, STRESS PERIOD     22
 UBDSV1 SAVING     FLOW-JA-FACE ON UNIT   1016 AT TIME STEP      2, STRESS PERIOD     22
 UBDSV06 SAVING              RCH IN MODEL TEST_TRANS       PACKAGE TEST_TRANS      CONNECTED TO MODEL TEST_TRANS       PACKAGE RCHA             ON UNIT   1016 AT TIME STEP      2, STRESS PERIOD     22
 UBDSV06 SAVING              CHD IN MODEL TEST_TRANS       PACKAGE TEST_TRANS      CONNECTED TO MODEL TEST_TRANS       PACKAGE CHD              ON UNIT   1016 AT TIME STEP      2, STRESS PERIOD     22

 HEAD WILL BE SAVED ON UNIT 1017 AT END OF TIME STEP    2, STRESS PERIOD   22
 UBDSV1 SAVING           STO-SS ON UNIT   1016 AT TIME STEP      3, STRESS PERIOD     22
 UBDSV1 SAVING           STO-SY ON UNIT   1016 AT TIME STEP      3, STRESS PERIOD     22
 UBDSV1 SAVING     FLOW-JA-FACE ON UNIT   1016 AT TIME STEP      3, STRESS PERIOD     22
 UBDSV06 SAVING              RCH IN MODEL TEST_TRANS       PACKAGE TEST_TRANS      CONNECTED TO MODEL TEST_TRANS       PACKAGE RCHA             ON UNIT   1016 AT TIME STEP      3, STRESS PERIOD     22
 UBDSV06 SAVING              CHD IN MODEL TEST_TRANS       PACKAGE TEST_TRANS      CONNECTED TO MODEL TEST_TRANS       PACKAGE CHD              ON UNIT   1016 AT TIME STEP      3, STRESS PERIOD     22

 HEAD WILL BE SAVED ON UNIT 1017 AT END OF TIME STEP    3, STRESS PERIOD   22
 UBDSV1 SAVING           STO-SS ON UNIT   1016 AT TIME STEP      4, STRESS PERIOD     22
 UBDSV1 SAVING           STO-SY ON UNIT   1016 AT TIME STEP      4, STRESS PERIOD     22
 UBDSV1 SAVING     FLOW-JA-FACE ON UNIT   1016 AT TIME STEP      4, STRESS PERIOD     22
 UBDSV06 SAVING              RCH IN MODEL TEST_TRANS       PACKAGE TEST_TRANS      CONNECTED TO MODEL TEST_TRANS       PACKAGE RCHA             ON UNIT   1016 AT TIME STEP      4, STRESS PERIOD     22
 UBDSV06 SAVING              CHD IN MODEL TEST_TRANS       PACKAGE TEST_TRANS      CONNECTED TO MODEL TEST_TRANS       PACKAGE CHD              ON UNIT   1016 AT TIME STEP      4, STRESS PERIOD     22

 HEAD WILL BE SAVED ON UNIT 1017 AT END OF TIME STEP    4, STRESS PERIOD   22
 UBDSV1 SAVING           STO-SS ON UNIT   1016 AT TIME STEP      5, STRESS PERIOD     22
 UBDSV1 SAVING           STO-SY ON UNIT   1016 AT TIME STEP      5, STRESS PERIOD     22
 UBDSV1 SAVING     FLOW-JA-FACE ON UNIT   1016 AT TIME STEP      5, STRESS PERIOD     22
 UBDSV06 SAVING              RCH IN MODEL TEST_TRANS       PACKAGE TEST_TRANS      CONNECTED TO MODEL TEST_TRANS       PACKAGE RCHA             ON UNIT   1016 AT TIME STEP      5, STRESS PERIOD     22
 UBDSV06 SAVING              CHD IN MODEL TEST_TRANS       PACKAGE TEST_TRANS      CONNECTED TO MODEL TEST_TRANS       PACKAGE CHD              ON UNIT   1016 AT TIME STEP      5, STRESS PERIOD     22

 HEAD WILL BE SAVED ON UNIT 1017 AT END OF TIME STEP    5, STRESS PERIOD   22
 UBDSV1 SAVING           STO-SS ON UNIT   1016 AT TIME STEP      6, STRESS PERIOD     22
 UBDSV1 SAVING           STO-SY ON UNIT   1016 AT TIME STEP      6, STRESS PERIOD     22
 UBDSV1 SAVING     FLOW-JA-FACE ON UNIT   1016 AT TIME STEP      6, STRESS PERIOD     22
 UBDSV06 SAVING              RCH IN MODEL TEST_TRANS       PACKAGE TEST_TRANS      CONNECTED TO MODEL TEST_TRANS       PACKAGE RCHA             ON UNIT   1016 AT TIME STEP      6, STRESS PERIOD     22
 UBDSV06 SAVING              CHD IN MODEL TEST_TRANS       PACKAGE TEST_TRANS      CONNECTED TO MODEL TEST_TRANS       PACKAGE CHD              ON UNIT   1016 AT TIME STEP      6, STRESS PERIOD     22

 HEAD WILL BE SAVED ON UNIT 1017 AT END OF TIME STEP    6, STRESS PERIOD   22
 UBDSV1 SAVING           STO-SS ON UNIT   1016 AT TIME STEP      7, STRESS PERIOD     22
 UBDSV1 SAVING           STO-SY ON UNIT   1016 AT TIME STEP      7, STRESS PERIOD     22
 UBDSV1 SAVING     FLOW-JA-FACE ON UNIT   1016 AT TIME STEP      7, STRESS PERIOD     22
 UBDSV06 SAVING              RCH IN MODEL TEST_TRANS       PACKAGE TEST_TRANS      CONNECTED TO MODEL TEST_TRANS       PACKAGE RCHA             ON UNIT   1016 AT TIME STEP      7, STRESS PERIOD     22
 UBDSV06 SAVING              CHD IN MODEL TEST_TRANS       PACKAGE TEST_TRANS      CONNECTED TO MODEL TEST_TRANS       PACKAGE CHD              ON UNIT   1016 AT TIME STEP      7, STRESS PERIOD     22

 HEAD WILL BE SAVED ON UNIT 1017 AT END OF TIME STEP    7, STRESS PERIOD   22
 UBDSV1 SAVING           STO-SS ON UNIT   1016 AT TIME STEP      8, STRESS PERIOD     22
 UBDSV1 SAVING           STO-SY ON UNIT   1016 AT TIME STEP      8, STRESS PERIOD     22
 UBDSV1 SAVING     FLOW-JA-FACE ON UNIT   1016 AT TIME STEP      8, STRESS PERIOD     22
 UBDSV06 SAVING              RCH IN MODEL TEST_TRANS       PACKAGE TEST_TRANS      CONNECTED TO MODEL TEST_TRANS       PACKAGE RCHA             ON UNIT   1016 AT TIME STEP      8, STRESS PERIOD     22
 UBDSV06 SAVING              CHD IN MODEL TEST_TRANS       PACKAGE TEST_TRANS      CONNECTED TO MODEL TEST_TRANS       PACKAGE CHD              ON UNIT   1016 AT TIME STEP      8, STRESS PERIOD     22

 HEAD WILL BE SAVED ON UNIT 1017 AT END OF TIME STEP    8, STRESS PERIOD   22
 UBDSV1 SAVING           STO-SS ON UNIT   1016 AT TIME STEP      9, STRESS PERIOD     22
 UBDSV1 SAVING           STO-SY ON UNIT   1016 AT TIME STEP      9, STRESS PERIOD     22
 UBDSV1 SAVING     FLOW-JA-FACE ON UNIT   1016 AT TIME STEP      9, STRESS PERIOD     22
 UBDSV06 SAVING              RCH IN MODEL TEST_TRANS       PACKAGE TEST_TRANS      CONNECTED TO MODEL TEST_TRANS       PACKAGE RCHA             ON UNIT   1016 AT TIME STEP      9, STRESS PERIOD     22
 UBDSV06 SAVING              CHD IN MODEL TEST_TRANS       PACKAGE TEST_TRANS      CONNECTED TO MODEL TEST_TRANS       PACKAGE CHD              ON UNIT   1016 AT TIME STEP      9, STRESS PERIOD     22

 HEAD WILL BE SAVED ON UNIT 1017 AT END OF TIME STEP    9, STRESS PERIOD   22
 UBDSV1 SAVING           STO-SS ON UNIT   1016 AT TIME STEP     10, STRESS PERIOD     22
 UBDSV1 SAVING           STO-SY ON UNIT   1016 AT TIME STEP     10, STRESS PERIOD     22
 UBDSV1 SAVING     FLOW-JA-FACE ON UNIT   1016 AT TIME STEP     10, STRESS PERIOD     22
 UBDSV06 SAVING              RCH IN MODEL TEST_TRANS       PACKAGE TEST_TRANS      CONNECTED TO MODEL TEST_TRANS       PACKAGE RCHA             ON UNIT   1016 AT TIME STEP     10, STRESS PERIOD     22
 UBDSV06 SAVING              CHD IN MODEL TEST_TRANS       PACKAGE TEST_TRANS      CONNECTED TO MODEL TEST_TRANS       PACKAGE CHD              ON UNIT   1016 AT TIME STEP     10, STRESS PERIOD     22
1
  HEAD IN LAYER   1 AT END OF TIME STEP  10 IN STRESS PERIOD   22
  ---------------------------------------------------------------------------

            1           2           3           4           5           6           7           8           9          10
           11          12          13          14          15          16          17          18          19          20
           21          22          23          24          25          26          27          28          29          30
 ........................................................................................................................
   1    27.72       27.72       27.71       27.70       27.68       27.66       27.63       27.60       27.57       27.53    
        27.48       27.43       27.38       27.32       27.25       27.18       27.10       27.01       26.92       26.82    
        26.71       26.59       26.46       26.32       26.16       25.99       25.80       25.59       25.34       25.06    
   2    27.72       27.72       27.71       27.70       27.68       27.66       27.63       27.60       27.57       27.53    
        27.48       27.43       27.38       27.32       27.25       27.18       27.10       27.01       26.92       26.82    
        26.71       26.59       26.46       26.32       26.16       25.99       25.80       25.59       25.34       25.06    
   3    27.72       27.72       27.71       27.70       27.68       27.66       27.63       27.60       27.57       27.53    
        27.48       27.43       27.38       27.32       27.25       27.18       27.10       27.01       26.92       26.82    
        26.71       26.59       26.46       26.32       26.16       25.99       25.80       25.59       25.34       25.06    
   4    27.72       27.72       27.71       27.70       27.68       27.66       27.63       27.60       27.57       27.53    
        27.48       27.43       27.38       27.32       27.25       27.18       27.10       27.01       26.92       26.82    
        26.71       26.59       26.46       26.32       26.16       25.99       25.80       25.59       25.34       25.06    
   5    27.72       27.72       27.71       27.70       27.68       27.66       27.63       27.60       27.57       27.53    
        27.48       27.43       27.38       27.32       27.25       27.18       27.10       27.01       26.92       26.82    
        26.71       26.59       26.46       26.32       26.16       25.99       25.80       25.59       25.34       25.06    
   6    27.72       27.72       27.71       27.70       27.68       27.66       27.63       27.60       27.57       27.53    
        27.48       27.43       27.38       27.32       27.25       27.18       27.10       27.01       26.92       26.82    
        26.71       26.59       26.46       26.32       26.16       25.99       25.80       25.59       25.34       25.06    
   7    27.72       27.72       27.71       27.70       27.68       27.66       27.63       27.60       27.57       27.53    
        27.48       27.43       27.38       27.32       27.25       27.18       27.10       27.01       26.92       26.82    
        26.71       26.59       26.46       26.32       26.16       25.99       25.80       25.59       25.34       25.06    
   8    27.72       27.72       27.71       27.70       27.68       27.66       27.63       27.60       27.57       27.53    
        27.48       27.43       27.38       27.32       27.25       27.18       27.10       27.01       26.92       26.82    
        26.71       26.59       26.46       26.32       26.16       25.99       25.80       25.59       25.34       25.06    
   9    27.72       27.72       27.71       27.70       27.68       27.66       27.63       27.60       27.57       27.53    
        27.48       27.43       27.38       27.32       27.25       27.18       27.10       27.01       26.92       26.82    
        26.71       26.59       26.46       26.32       26.16       25.99       25.80       25.59       25.34       25.06    
  10    27.72       27.72       27.71       27.70       27.68       27.66       27.63       27.60       27.57       27.53    
        27.48       27.43       27.38       27.32       27.25       27.18       27.10       27.01       26.92       26.82    
        26.71       26.59       26.46       26.32       26.16       25.99       25.80       25.59       25.34       25.06    
  11    27.72       27.72       27.71       27.70       27.68       27.66       27.63       27.60       27.57       27.53    
        27.48       27.43       27.38       27.32       27.25       27.18       27.10       27.01       26.92       26.82    
        26.71       26.59       26.46       26.32       26.16       25.99       25.80       25.59       25.34       25.06    
  12    27.72       27.72       27.71       27.70       27.68       27.66       27.63       27.60       27.57       27.53    
        27.48       27.43       27.38       27.32       27.25       27.18       27.10       27.01       26.92       26.82    
        26.71       26.59       26.46       26.32       26.16       25.99       25.80       25.59       25.34       25.06    
  13    27.72       27.72       27.71       27.70       27.68       27.66       27.63       27.60       27.57       27.53    
        27.48       27.43       27.38       27.32       27.25       27.18       27.10       27.01       26.92       26.82    
        26.71       26.59       26.46       26.32       26.16       25.99       25.80       25.59       25.34       25.06    
  14    27.72       27.72       27.71       27.70       27.68       27.66       27.63       27.60       27.57       27.53    
        27.48       27.43       27.38       27.32       27.25       27.18       27.10       27.01       26.92       26.82    
        26.71       26.59       26.46       26.32       26.16       25.99       25.80       25.59       25.34       25.06    
  15    27.72       27.72       27.71       27.70       27.68       27.66       27.63       27.60       27.57       27.53    
        27.48       27.43       27.38       27.32       27.25       27.18       27.10       27.01       26.92       26.82    
        26.71       26.59       26.46       26.32       26.16       25.99       25.80       25.59       25.34       25.06    
  16    27.72       27.72       27.71       27.70       27.68       27.66       27.63       27.60       27.57       27.53    
        27.48       27.43       27.38       27.32       27.25       27.18       27.10       27.01       26.92       26.82    
        26.71       26.59       26.46       26.32       26.16       25.99       25.80       25.59       25.34       25.06    
  17    27.72       27.72       27.71       27.70       27.68       27.66       27.63       27.60       27.57       27.53    
        27.48       27.43       27.38       27.32       27.25       27.18       27.10       27.01       26.92       26.82    
        26.71       26.59       26.46       26.32       26.16       25.99       25.80       25.59       25.34       25.06    
  18    27.72       27.72       27.71       27.70       27.68       27.66       27.63       27.60       27.57       27.53    
        27.48       27.43       27.38       27.32       27.25       27.18       27.10       27.01       26.92       26.82    
        26.71       26.59       26.46       26.32       26.16       25.99       25.80       25.59       25.34       25.06    
  19    27.72       27.72       27.71       27.70       27.68       27.66       27.63       27.60       27.57       27.53    
        27.48       27.43       27.38       27.32       27.25       27.18       27.10       27.01       26.92       26.82    
        26.71       26.59       26.46       26.32       26.16       25.99       25.80       25.59       25.34       25.06    
  20    27.72       27.72       27.71       27.70       27.68       27.66       27.63       27.60       27.57       27.53    
        27.48       27.43       27.38       27.32       27.25       27.18       27.10       27.01       26.92       26.82    
        26.71       26.59       26.46       26.32       26.16       25.99       25.80       25.59       25.34       25.06    
  21    27.72       27.72       27.71       27.70       27.68       27.66       27.63       27.60       27.57       27.53    
        27.48       27.43       27.38       27.32       27.25       27.18       27.10       27.01       26.92       26.82    
        26.71       26.59       26.46       26.32       26.16       25.99       25.80       25.59       25.34       25.06    
  22    27.72       27.72       27.71       27.70       27.68       27.66       27.63       27.60       27.57       27.53    
        27.48       27.43       27.38       27.32       27.25       27.18       27.10       27.01       26.92       26.82    
        26.71       26.59       26.46       26.32       26.16       25.99       25.80       25.59       25.34       25.06    
  23    27.72       27.72       27.71       27.70       27.68       27.66       27.63       27.60       27.57       27.53    
        27.48       27.43       27.38       27.32       27.25       27.18       27.10       27.01       26.92       26.82    
        26.71       26.59       26.46       26.32       26.16       25.99       25.80       25.59       25.34       25.06    
  24    27.72       27.72       27.71       27.70       27.68       27.66       27.63       27.60       27.57       27.53    
        27.48       27.43       27.38       27.32       27.25       27.18       27.10       27.01       26.92       26.82    
        26.71       26.59       26.46       26.32       26.16       25.99       25.80       25.59       25.34       25.06    
  25    27.72       27.72       27.71       27.70       27.68       27.66       27.63       27.60       27.57       27.53    
        27.48       27.43       27.38       27.32       27.25       27.18       27.10       27.01       26.92       26.82    
        26.71       26.59       26.46       26.32       26.16       25.99       25.80       25.59       25.34       25.06    
  26    27.72       27.72       27.71       27.70       27.68       27.66       27.63       27.60       27.57       27.53    
        27.48       27.43       27.38       27.32       27.25       27.18       27.10       27.01       26.92       26.82    
        26.71       26.59       26.46       26.32       26.16       25.99       25.80       25.59       25.34       25.06    
  27    27.72       27.72       27.71       27.70       27.68       27.66       27.63       27.60       27.57       27.53    
        27.48       27.43       27.38       27.32       27.25       27.18       27.10       27.01       26.92       26.82    
        26.71       26.59       26.46       26.32       26.16       25.99       25.80       25.59       25.34       25.06    
  28    27.72       27.72       27.71       27.70       27.68       27.66       27.63       27.60       27.57       27.53    
        27.48       27.43       27.38       27.32       27.25       27.18       27.10       27.01       26.92       26.82    
        26.71       26.59       26.46       26.32       26.16       25.99       25.80       25.59       25.34       25.06    
  29    27.72       27.72       27.71       27.70       27.68       27.66       27.63       27.60       27.57       27.53    
        27.48       27.43       27.38       27.32       27.25       27.18       27.10       27.01       26.92       26.82    
        26.71       26.59       26.46       26.32       26.16       25.99       25.80       25.59       25.34       25.06    
  30    27.72       27.72       27.71       27.70       27.68       27.66       27.63       27.60       27.57       27.53    
        27.48       27.43       27.38       27.32       27.25       27.18       27.10       27.01       26.92       26.82    
        26.71       26.59       26.46       26.32       26.16       25.99       25.80       25.59       25.34       25.06    

 HEAD WILL BE SAVED ON UNIT 1017 AT END OF TIME STEP   10, STRESS PERIOD   22


  VOLUME BUDGET FOR ENTIRE MODEL AT END OF TIME STEP   10, STRESS PERIOD  22
  ---------------------------------------------------------------------------------------------------

     CUMULATIVE VOLUME      L**3       RATES FOR THIS TIME STEP      L**3/T          PACKAGE NAME    
     ------------------                 ------------------------                     ----------------

           IN:                                      IN:
           ---                                      ---
              STO-SS =          38.7706                STO-SS =           0.0000     STORAGE         
              STO-SY =       24437.4652                STO-SY =           0.0000     STORAGE         
                 RCH =       98917.8525                   RCH =         190.6849     RCHA            
                 CHD =           0.0000                   CHD =           0.0000     CHD             

            TOTAL IN =      123394.0884              TOTAL IN =         190.6849

          OUT:                                     OUT:
          ----                                     ----
              STO-SS =          18.9132                STO-SS =       4.5318E-02     STORAGE         
              STO-SY =       12120.7587                STO-SY =          28.7045     STORAGE         
                 RCH =           0.0000                   RCH =           0.0000     RCHA            
                 CHD =      111253.4238                   CHD =         161.9579     CHD             

           TOTAL OUT =      123393.0957             TOTAL OUT =         190.7078

            IN - OUT =           0.9927              IN - OUT =      -2.2914E-02

 PERCENT DISCREPANCY =           0.00     PERCENT DISCREPANCY =          -0.01




         TIME SUMMARY AT END OF TIME STEP   10 IN STRESS PERIOD   22
                    SECONDS     MINUTES      HOURS       DAYS        YEARS
                    -----------------------------------------------------------
   TIME STEP LENGTH 2.59200E+05  4320.0      72.000      3.0000     8.21355E-03
 STRESS PERIOD TIME 2.59200E+06  43200.      720.00      30.000     8.21355E-02
         TOTAL TIME 5.45184E+07 9.08640E+05  15144.      631.00      1.7276    

 OUTPUT CONTROL FOR STRESS PERIOD 23 IS REPEATED USING SETTINGS FROM A PREVIOUS STRESS PERIOD.


 STRESS PERIOD 23 IS TRANSIENT


                 RECHARGE =  0.2465750E-02
 UBDSV1 SAVING           STO-SS ON UNIT   1016 AT TIME STEP      1, STRESS PERIOD     23
 UBDSV1 SAVING           STO-SY ON UNIT   1016 AT TIME STEP      1, STRESS PERIOD     23
 UBDSV1 SAVING     FLOW-JA-FACE ON UNIT   1016 AT TIME STEP      1, STRESS PERIOD     23
 UBDSV06 SAVING              RCH IN MODEL TEST_TRANS       PACKAGE TEST_TRANS      CONNECTED TO MODEL TEST_TRANS       PACKAGE RCHA             ON UNIT   1016 AT TIME STEP      1, STRESS PERIOD     23
 UBDSV06 SAVING              CHD IN MODEL TEST_TRANS       PACKAGE TEST_TRANS      CONNECTED TO MODEL TEST_TRANS       PACKAGE CHD              ON UNIT   1016 AT TIME STEP      1, STRESS PERIOD     23
1
  HEAD IN LAYER   1 AT END OF TIME STEP   1 IN STRESS PERIOD   23
  ---------------------------------------------------------------------------

            1           2           3           4           5           6           7           8           9          10
           11          12          13          14          15          16          17          18          19          20
           21          22          23          24          25          26          27          28          29          30
 ........................................................................................................................
   1    27.73       27.73       27.72       27.71       27.69       27.67       27.64       27.61       27.58       27.54    
        27.49       27.44       27.39       27.33       27.26       27.19       27.11       27.02       26.93       26.83    
        26.71       26.59       26.46       26.31       26.14       25.95       25.73       25.44       25.05       24.36    
   2    27.73       27.73       27.72       27.71       27.69       27.67       27.64       27.61       27.58       27.54    
        27.49       27.44       27.39       27.33       27.26       27.19       27.11       27.02       26.93       26.83    
        26.71       26.59       26.46       26.31       26.14       25.95       25.73       25.44       25.05       24.36    
   3    27.73       27.73       27.72       27.71       27.69       27.67       27.64       27.61       27.58       27.54    
        27.49       27.44       27.39       27.33       27.26       27.19       27.11       27.02       26.93       26.83    
        26.71       26.59       26.46       26.31       26.14       25.95       25.73       25.44       25.05       24.36    
   4    27.73       27.73       27.72       27.71       27.69       27.67       27.64       27.61       27.58       27.54    
        27.49       27.44       27.39       27.33       27.26       27.19       27.11       27.02       26.93       26.83    
        26.71       26.59       26.46       26.31       26.14       25.95       25.73       25.44       25.05       24.36    
   5    27.73       27.73       27.72       27.71       27.69       27.67       27.64       27.61       27.58       27.54    
        27.49       27.44       27.39       27.33       27.26       27.19       27.11       27.02       26.93       26.83    
        26.71       26.59       26.46       26.31       26.14       25.95       25.73       25.44       25.05       24.36    
   6    27.73       27.73       27.72       27.71       27.69       27.67       27.64       27.61       27.58       27.54    
        27.49       27.44       27.39       27.33       27.26       27.19       27.11       27.02       26.93       26.83    
        26.71       26.59       26.46       26.31       26.14       25.95       25.73       25.44       25.05       24.36    
   7    27.73       27.73       27.72       27.71       27.69       27.67       27.64       27.61       27.58       27.54    
        27.49       27.44       27.39       27.33       27.26       27.19       27.11       27.02       26.93       26.83    
        26.71       26.59       26.46       26.31       26.14       25.95       25.73       25.44       25.05       24.36    
   8    27.73       27.73       27.72       27.71       27.69       27.67       27.64       27.61       27.58       27.54    
        27.49       27.44       27.39       27.33       27.26       27.19       27.11       27.02       26.93       26.83    
        26.71       26.59       26.46       26.31       26.14       25.95       25.73       25.44       25.05       24.36    
   9    27.73       27.73       27.72       27.71       27.69       27.67       27.64       27.61       27.58       27.54    
        27.49       27.44       27.39       27.33       27.26       27.19       27.11       27.02       26.93       26.83    
        26.71       26.59       26.46       26.31       26.14       25.95       25.73       25.44       25.05       24.36    
  10    27.73       27.73       27.72       27.71       27.69       27.67       27.64       27.61       27.58       27.54    
        27.49       27.44       27.39       27.33       27.26       27.19       27.11       27.02       26.93       26.83    
        26.71       26.59       26.46       26.31       26.14       25.95       25.73       25.44       25.05       24.36    
  11    27.73       27.73       27.72       27.71       27.69       27.67       27.64       27.61       27.58       27.54    
        27.49       27.44       27.39       27.33       27.26       27.19       27.11       27.02       26.93       26.83    
        26.71       26.59       26.46       26.31       26.14       25.95       25.73       25.44       25.05       24.36    
  12    27.73       27.73       27.72       27.71       27.69       27.67       27.64       27.61       27.58       27.54    
        27.49       27.44       27.39       27.33       27.26       27.19       27.11       27.02       26.93       26.83    
        26.71       26.59       26.46       26.31       26.14       25.95       25.73       25.44       25.05       24.36    
  13    27.73       27.73       27.72       27.71       27.69       27.67       27.64       27.61       27.58       27.54    
        27.49       27.44       27.39       27.33       27.26       27.19       27.11       27.02       26.93       26.83    
        26.71       26.59       26.46       26.31       26.14       25.95       25.73       25.44       25.05       24.36    
  14    27.73       27.73       27.72       27.71       27.69       27.67       27.64       27.61       27.58       27.54    
        27.49       27.44       27.39       27.33       27.26       27.19       27.11       27.02       26.93       26.83    
        26.71       26.59       26.46       26.31       26.14       25.95       25.73       25.44       25.05       24.36    
  15    27.73       27.73       27.72       27.71       27.69       27.67       27.64       27.61       27.58       27.54    
        27.49       27.44       27.39       27.33       27.26       27.19       27.11       27.02       26.93       26.83    
        26.71       26.59       26.46       26.31       26.14       25.95       25.73       25.44       25.05       24.36    
  16    27.73       27.73       27.72       27.71       27.69       27.67       27.64       27.61       27.58       27.54    
        27.49       27.44       27.39       27.33       27.26       27.19       27.11       27.02       26.93       26.83    
        26.71       26.59       26.46       26.31       26.14       25.95       25.73       25.44       25.05       24.36    
  17    27.73       27.73       27.72       27.71       27.69       27.67       27.64       27.61       27.58       27.54    
        27.49       27.44       27.39       27.33       27.26       27.19       27.11       27.02       26.93       26.83    
        26.71       26.59       26.46       26.31       26.14       25.95       25.73       25.44       25.05       24.36    
  18    27.73       27.73       27.72       27.71       27.69       27.67       27.64       27.61       27.58       27.54    
        27.49       27.44       27.39       27.33       27.26       27.19       27.11       27.02       26.93       26.83    
        26.71       26.59       26.46       26.31       26.14       25.95       25.73       25.44       25.05       24.36    
  19    27.73       27.73       27.72       27.71       27.69       27.67       27.64       27.61       27.58       27.54    
        27.49       27.44       27.39       27.33       27.26       27.19       27.11       27.02       26.93       26.83    
        26.71       26.59       26.46       26.31       26.14       25.95       25.73       25.44       25.05       24.36    
  20    27.73       27.73       27.72       27.71       27.69       27.67       27.64       27.61       27.58       27.54    
        27.49       27.44       27.39       27.33       27.26       27.19       27.11       27.02       26.93       26.83    
        26.71       26.59       26.46       26.31       26.14       25.95       25.73       25.44       25.05       24.36    
  21    27.73       27.73       27.72       27.71       27.69       27.67       27.64       27.61       27.58       27.54    
        27.49       27.44       27.39       27.33       27.26       27.19       27.11       27.02       26.93       26.83    
        26.71       26.59       26.46       26.31       26.14       25.95       25.73       25.44       25.05       24.36    
  22    27.73       27.73       27.72       27.71       27.69       27.67       27.64       27.61       27.58       27.54    
        27.49       27.44       27.39       27.33       27.26       27.19       27.11       27.02       26.93       26.83    
        26.71       26.59       26.46       26.31       26.14       25.95       25.73       25.44       25.05       24.36    
  23    27.73       27.73       27.72       27.71       27.69       27.67       27.64       27.61       27.58       27.54    
        27.49       27.44       27.39       27.33       27.26       27.19       27.11       27.02       26.93       26.83    
        26.71       26.59       26.46       26.31       26.14       25.95       25.73       25.44       25.05       24.36    
  24    27.73       27.73       27.72       27.71       27.69       27.67       27.64       27.61       27.58       27.54    
        27.49       27.44       27.39       27.33       27.26       27.19       27.11       27.02       26.93       26.83    
        26.71       26.59       26.46       26.31       26.14       25.95       25.73       25.44       25.05       24.36    
  25    27.73       27.73       27.72       27.71       27.69       27.67       27.64       27.61       27.58       27.54    
        27.49       27.44       27.39       27.33       27.26       27.19       27.11       27.02       26.93       26.83    
        26.71       26.59       26.46       26.31       26.14       25.95       25.73       25.44       25.05       24.36    
  26    27.73       27.73       27.72       27.71       27.69       27.67       27.64       27.61       27.58       27.54    
        27.49       27.44       27.39       27.33       27.26       27.19       27.11       27.02       26.93       26.83    
        26.71       26.59       26.46       26.31       26.14       25.95       25.73       25.44       25.05       24.36    
  27    27.73       27.73       27.72       27.71       27.69       27.67       27.64       27.61       27.58       27.54    
        27.49       27.44       27.39       27.33       27.26       27.19       27.11       27.02       26.93       26.83    
        26.71       26.59       26.46       26.31       26.14       25.95       25.73       25.44       25.05       24.36    
  28    27.73       27.73       27.72       27.71       27.69       27.67       27.64       27.61       27.58       27.54    
        27.49       27.44       27.39       27.33       27.26       27.19       27.11       27.02       26.93       26.83    
        26.71       26.59       26.46       26.31       26.14       25.95       25.73       25.44       25.05       24.36    
  29    27.73       27.73       27.72       27.71       27.69       27.67       27.64       27.61       27.58       27.54    
        27.49       27.44       27.39       27.33       27.26       27.19       27.11       27.02       26.93       26.83    
        26.71       26.59       26.46       26.31       26.14       25.95       25.73       25.44       25.05       24.36    
  30    27.73       27.73       27.72       27.71       27.69       27.67       27.64       27.61       27.58       27.54    
        27.49       27.44       27.39       27.33       27.26       27.19       27.11       27.02       26.93       26.83    
        26.71       26.59       26.46       26.31       26.14       25.95       25.73       25.44       25.05       24.36    

 HEAD WILL BE SAVED ON UNIT 1017 AT END OF TIME STEP    1, STRESS PERIOD   23



         TIME SUMMARY AT END OF TIME STEP    1 IN STRESS PERIOD   23
                    SECONDS     MINUTES      HOURS       DAYS        YEARS
                    -----------------------------------------------------------
   TIME STEP LENGTH 2.59200E+05  4320.0      72.000      3.0000     8.21355E-03
 STRESS PERIOD TIME 2.59200E+05  4320.0      72.000      3.0000     8.21355E-03
         TOTAL TIME 5.47776E+07 9.12960E+05  15216.      634.00      1.7358    
 UBDSV1 SAVING           STO-SS ON UNIT   1016 AT TIME STEP      2, STRESS PERIOD     23
 UBDSV1 SAVING           STO-SY ON UNIT   1016 AT TIME STEP      2, STRESS PERIOD     23
 UBDSV1 SAVING     FLOW-JA-FACE ON UNIT   1016 AT TIME STEP      2, STRESS PERIOD     23
 UBDSV06 SAVING              RCH IN MODEL TEST_TRANS       PACKAGE TEST_TRANS      CONNECTED TO MODEL TEST_TRANS       PACKAGE RCHA             ON UNIT   1016 AT TIME STEP      2, STRESS PERIOD     23
 UBDSV06 SAVING              CHD IN MODEL TEST_TRANS       PACKAGE TEST_TRANS      CONNECTED TO MODEL TEST_TRANS       PACKAGE CHD              ON UNIT   1016 AT TIME STEP      2, STRESS PERIOD     23

 HEAD WILL BE SAVED ON UNIT 1017 AT END OF TIME STEP    2, STRESS PERIOD   23
 UBDSV1 SAVING           STO-SS ON UNIT   1016 AT TIME STEP      3, STRESS PERIOD     23
 UBDSV1 SAVING           STO-SY ON UNIT   1016 AT TIME STEP      3, STRESS PERIOD     23
 UBDSV1 SAVING     FLOW-JA-FACE ON UNIT   1016 AT TIME STEP      3, STRESS PERIOD     23
 UBDSV06 SAVING              RCH IN MODEL TEST_TRANS       PACKAGE TEST_TRANS      CONNECTED TO MODEL TEST_TRANS       PACKAGE RCHA             ON UNIT   1016 AT TIME STEP      3, STRESS PERIOD     23
 UBDSV06 SAVING              CHD IN MODEL TEST_TRANS       PACKAGE TEST_TRANS      CONNECTED TO MODEL TEST_TRANS       PACKAGE CHD              ON UNIT   1016 AT TIME STEP      3, STRESS PERIOD     23

 HEAD WILL BE SAVED ON UNIT 1017 AT END OF TIME STEP    3, STRESS PERIOD   23
 UBDSV1 SAVING           STO-SS ON UNIT   1016 AT TIME STEP      4, STRESS PERIOD     23
 UBDSV1 SAVING           STO-SY ON UNIT   1016 AT TIME STEP      4, STRESS PERIOD     23
 UBDSV1 SAVING     FLOW-JA-FACE ON UNIT   1016 AT TIME STEP      4, STRESS PERIOD     23
 UBDSV06 SAVING              RCH IN MODEL TEST_TRANS       PACKAGE TEST_TRANS      CONNECTED TO MODEL TEST_TRANS       PACKAGE RCHA             ON UNIT   1016 AT TIME STEP      4, STRESS PERIOD     23
 UBDSV06 SAVING              CHD IN MODEL TEST_TRANS       PACKAGE TEST_TRANS      CONNECTED TO MODEL TEST_TRANS       PACKAGE CHD              ON UNIT   1016 AT TIME STEP      4, STRESS PERIOD     23

 HEAD WILL BE SAVED ON UNIT 1017 AT END OF TIME STEP    4, STRESS PERIOD   23
 UBDSV1 SAVING           STO-SS ON UNIT   1016 AT TIME STEP      5, STRESS PERIOD     23
 UBDSV1 SAVING           STO-SY ON UNIT   1016 AT TIME STEP      5, STRESS PERIOD     23
 UBDSV1 SAVING     FLOW-JA-FACE ON UNIT   1016 AT TIME STEP      5, STRESS PERIOD     23
 UBDSV06 SAVING              RCH IN MODEL TEST_TRANS       PACKAGE TEST_TRANS      CONNECTED TO MODEL TEST_TRANS       PACKAGE RCHA             ON UNIT   1016 AT TIME STEP      5, STRESS PERIOD     23
 UBDSV06 SAVING              CHD IN MODEL TEST_TRANS       PACKAGE TEST_TRANS      CONNECTED TO MODEL TEST_TRANS       PACKAGE CHD              ON UNIT   1016 AT TIME STEP      5, STRESS PERIOD     23

 HEAD WILL BE SAVED ON UNIT 1017 AT END OF TIME STEP    5, STRESS PERIOD   23
 UBDSV1 SAVING           STO-SS ON UNIT   1016 AT TIME STEP      6, STRESS PERIOD     23
 UBDSV1 SAVING           STO-SY ON UNIT   1016 AT TIME STEP      6, STRESS PERIOD     23
 UBDSV1 SAVING     FLOW-JA-FACE ON UNIT   1016 AT TIME STEP      6, STRESS PERIOD     23
 UBDSV06 SAVING              RCH IN MODEL TEST_TRANS       PACKAGE TEST_TRANS      CONNECTED TO MODEL TEST_TRANS       PACKAGE RCHA             ON UNIT   1016 AT TIME STEP      6, STRESS PERIOD     23
 UBDSV06 SAVING              CHD IN MODEL TEST_TRANS       PACKAGE TEST_TRANS      CONNECTED TO MODEL TEST_TRANS       PACKAGE CHD              ON UNIT   1016 AT TIME STEP      6, STRESS PERIOD     23

 HEAD WILL BE SAVED ON UNIT 1017 AT END OF TIME STEP    6, STRESS PERIOD   23
 UBDSV1 SAVING           STO-SS ON UNIT   1016 AT TIME STEP      7, STRESS PERIOD     23
 UBDSV1 SAVING           STO-SY ON UNIT   1016 AT TIME STEP      7, STRESS PERIOD     23
 UBDSV1 SAVING     FLOW-JA-FACE ON UNIT   1016 AT TIME STEP      7, STRESS PERIOD     23
 UBDSV06 SAVING              RCH IN MODEL TEST_TRANS       PACKAGE TEST_TRANS      CONNECTED TO MODEL TEST_TRANS       PACKAGE RCHA             ON UNIT   1016 AT TIME STEP      7, STRESS PERIOD     23
 UBDSV06 SAVING              CHD IN MODEL TEST_TRANS       PACKAGE TEST_TRANS      CONNECTED TO MODEL TEST_TRANS       PACKAGE CHD              ON UNIT   1016 AT TIME STEP      7, STRESS PERIOD     23

 HEAD WILL BE SAVED ON UNIT 1017 AT END OF TIME STEP    7, STRESS PERIOD   23
 UBDSV1 SAVING           STO-SS ON UNIT   1016 AT TIME STEP      8, STRESS PERIOD     23
 UBDSV1 SAVING           STO-SY ON UNIT   1016 AT TIME STEP      8, STRESS PERIOD     23
 UBDSV1 SAVING     FLOW-JA-FACE ON UNIT   1016 AT TIME STEP      8, STRESS PERIOD     23
 UBDSV06 SAVING              RCH IN MODEL TEST_TRANS       PACKAGE TEST_TRANS      CONNECTED TO MODEL TEST_TRANS       PACKAGE RCHA             ON UNIT   1016 AT TIME STEP      8, STRESS PERIOD     23
 UBDSV06 SAVING              CHD IN MODEL TEST_TRANS       PACKAGE TEST_TRANS      CONNECTED TO MODEL TEST_TRANS       PACKAGE CHD              ON UNIT   1016 AT TIME STEP      8, STRESS PERIOD     23

 HEAD WILL BE SAVED ON UNIT 1017 AT END OF TIME STEP    8, STRESS PERIOD   23
 UBDSV1 SAVING           STO-SS ON UNIT   1016 AT TIME STEP      9, STRESS PERIOD     23
 UBDSV1 SAVING           STO-SY ON UNIT   1016 AT TIME STEP      9, STRESS PERIOD     23
 UBDSV1 SAVING     FLOW-JA-FACE ON UNIT   1016 AT TIME STEP      9, STRESS PERIOD     23
 UBDSV06 SAVING              RCH IN MODEL TEST_TRANS       PACKAGE TEST_TRANS      CONNECTED TO MODEL TEST_TRANS       PACKAGE RCHA             ON UNIT   1016 AT TIME STEP      9, STRESS PERIOD     23
 UBDSV06 SAVING              CHD IN MODEL TEST_TRANS       PACKAGE TEST_TRANS      CONNECTED TO MODEL TEST_TRANS       PACKAGE CHD              ON UNIT   1016 AT TIME STEP      9, STRESS PERIOD     23

 HEAD WILL BE SAVED ON UNIT 1017 AT END OF TIME STEP    9, STRESS PERIOD   23
 UBDSV1 SAVING           STO-SS ON UNIT   1016 AT TIME STEP     10, STRESS PERIOD     23
 UBDSV1 SAVING           STO-SY ON UNIT   1016 AT TIME STEP     10, STRESS PERIOD     23
 UBDSV1 SAVING     FLOW-JA-FACE ON UNIT   1016 AT TIME STEP     10, STRESS PERIOD     23
 UBDSV06 SAVING              RCH IN MODEL TEST_TRANS       PACKAGE TEST_TRANS      CONNECTED TO MODEL TEST_TRANS       PACKAGE RCHA             ON UNIT   1016 AT TIME STEP     10, STRESS PERIOD     23
 UBDSV06 SAVING              CHD IN MODEL TEST_TRANS       PACKAGE TEST_TRANS      CONNECTED TO MODEL TEST_TRANS       PACKAGE CHD              ON UNIT   1016 AT TIME STEP     10, STRESS PERIOD     23
1
  HEAD IN LAYER   1 AT END OF TIME STEP  10 IN STRESS PERIOD   23
  ---------------------------------------------------------------------------

            1           2           3           4           5           6           7           8           9          10
           11          12          13          14          15          16          17          18          19          20
           21          22          23          24          25          26          27          28          29          30
 ........................................................................................................................
   1    27.82       27.82       27.81       27.80       27.78       27.75       27.73       27.69       27.66       27.61    
        27.56       27.51       27.45       27.38       27.31       27.23       27.14       27.04       26.93       26.81    
        26.68       26.54       26.38       26.20       26.00       25.78       25.52       25.22       24.85       24.36    
   2    27.82       27.82       27.81       27.80       27.78       27.75       27.73       27.69       27.66       27.61    
        27.56       27.51       27.45       27.38       27.31       27.23       27.14       27.04       26.93       26.81    
        26.68       26.54       26.38       26.20       26.00       25.78       25.52       25.22       24.85       24.36    
   3    27.82       27.82       27.81       27.80       27.78       27.75       27.73       27.69       27.66       27.61    
        27.56       27.51       27.45       27.38       27.31       27.23       27.14       27.04       26.93       26.81    
        26.68       26.54       26.38       26.20       26.00       25.78       25.52       25.22       24.85       24.36    
   4    27.82       27.82       27.81       27.80       27.78       27.75       27.73       27.69       27.66       27.61    
        27.56       27.51       27.45       27.38       27.31       27.23       27.14       27.04       26.93       26.81    
        26.68       26.54       26.38       26.20       26.00       25.78       25.52       25.22       24.85       24.36    
   5    27.82       27.82       27.81       27.80       27.78       27.75       27.73       27.69       27.66       27.61    
        27.56       27.51       27.45       27.38       27.31       27.23       27.14       27.04       26.93       26.81    
        26.68       26.54       26.38       26.20       26.00       25.78       25.52       25.22       24.85       24.36    
   6    27.82       27.82       27.81       27.80       27.78       27.75       27.73       27.69       27.66       27.61    
        27.56       27.51       27.45       27.38       27.31       27.23       27.14       27.04       26.93       26.81    
        26.68       26.54       26.38       26.20       26.00       25.78       25.52       25.22       24.85       24.36    
   7    27.82       27.82       27.81       27.80       27.78       27.75       27.73       27.69       27.66       27.61    
        27.56       27.51       27.45       27.38       27.31       27.23       27.14       27.04       26.93       26.81    
        26.68       26.54       26.38       26.20       26.00       25.78       25.52       25.22       24.85       24.36    
   8    27.82       27.82       27.81       27.80       27.78       27.75       27.73       27.69       27.66       27.61    
        27.56       27.51       27.45       27.38       27.31       27.23       27.14       27.04       26.93       26.81    
        26.68       26.54       26.38       26.20       26.00       25.78       25.52       25.22       24.85       24.36    
   9    27.82       27.82       27.81       27.80       27.78       27.75       27.73       27.69       27.66       27.61    
        27.56       27.51       27.45       27.38       27.31       27.23       27.14       27.04       26.93       26.81    
        26.68       26.54       26.38       26.20       26.00       25.78       25.52       25.22       24.85       24.36    
  10    27.82       27.82       27.81       27.80       27.78       27.75       27.73       27.69       27.66       27.61    
        27.56       27.51       27.45       27.38       27.31       27.23       27.14       27.04       26.93       26.81    
        26.68       26.54       26.38       26.20       26.00       25.78       25.52       25.22       24.85       24.36    
  11    27.82       27.82       27.81       27.80       27.78       27.75       27.73       27.69       27.66       27.61    
        27.56       27.51       27.45       27.38       27.31       27.23       27.14       27.04       26.93       26.81    
        26.68       26.54       26.38       26.20       26.00       25.78       25.52       25.22       24.85       24.36    
  12    27.82       27.82       27.81       27.80       27.78       27.75       27.73       27.69       27.66       27.61    
        27.56       27.51       27.45       27.38       27.31       27.23       27.14       27.04       26.93       26.81    
        26.68       26.54       26.38       26.20       26.00       25.78       25.52       25.22       24.85       24.36    
  13    27.82       27.82       27.81       27.80       27.78       27.75       27.73       27.69       27.66       27.61    
        27.56       27.51       27.45       27.38       27.31       27.23       27.14       27.04       26.93       26.81    
        26.68       26.54       26.38       26.20       26.00       25.78       25.52       25.22       24.85       24.36    
  14    27.82       27.82       27.81       27.80       27.78       27.75       27.73       27.69       27.66       27.61    
        27.56       27.51       27.45       27.38       27.31       27.23       27.14       27.04       26.93       26.81    
        26.68       26.54       26.38       26.20       26.00       25.78       25.52       25.22       24.85       24.36    
  15    27.82       27.82       27.81       27.80       27.78       27.75       27.73       27.69       27.66       27.61    
        27.56       27.51       27.45       27.38       27.31       27.23       27.14       27.04       26.93       26.81    
        26.68       26.54       26.38       26.20       26.00       25.78       25.52       25.22       24.85       24.36    
  16    27.82       27.82       27.81       27.80       27.78       27.75       27.73       27.69       27.66       27.61    
        27.56       27.51       27.45       27.38       27.31       27.23       27.14       27.04       26.93       26.81    
        26.68       26.54       26.38       26.20       26.00       25.78       25.52       25.22       24.85       24.36    
  17    27.82       27.82       27.81       27.80       27.78       27.75       27.73       27.69       27.66       27.61    
        27.56       27.51       27.45       27.38       27.31       27.23       27.14       27.04       26.93       26.81    
        26.68       26.54       26.38       26.20       26.00       25.78       25.52       25.22       24.85       24.36    
  18    27.82       27.82       27.81       27.80       27.78       27.75       27.73       27.69       27.66       27.61    
        27.56       27.51       27.45       27.38       27.31       27.23       27.14       27.04       26.93       26.81    
        26.68       26.54       26.38       26.20       26.00       25.78       25.52       25.22       24.85       24.36    
  19    27.82       27.82       27.81       27.80       27.78       27.75       27.73       27.69       27.66       27.61    
        27.56       27.51       27.45       27.38       27.31       27.23       27.14       27.04       26.93       26.81    
        26.68       26.54       26.38       26.20       26.00       25.78       25.52       25.22       24.85       24.36    
  20    27.82       27.82       27.81       27.80       27.78       27.75       27.73       27.69       27.66       27.61    
        27.56       27.51       27.45       27.38       27.31       27.23       27.14       27.04       26.93       26.81    
        26.68       26.54       26.38       26.20       26.00       25.78       25.52       25.22       24.85       24.36    
  21    27.82       27.82       27.81       27.80       27.78       27.75       27.73       27.69       27.66       27.61    
        27.56       27.51       27.45       27.38       27.31       27.23       27.14       27.04       26.93       26.81    
        26.68       26.54       26.38       26.20       26.00       25.78       25.52       25.22       24.85       24.36    
  22    27.82       27.82       27.81       27.80       27.78       27.75       27.73       27.69       27.66       27.61    
        27.56       27.51       27.45       27.38       27.31       27.23       27.14       27.04       26.93       26.81    
        26.68       26.54       26.38       26.20       26.00       25.78       25.52       25.22       24.85       24.36    
  23    27.82       27.82       27.81       27.80       27.78       27.75       27.73       27.69       27.66       27.61    
        27.56       27.51       27.45       27.38       27.31       27.23       27.14       27.04       26.93       26.81    
        26.68       26.54       26.38       26.20       26.00       25.78       25.52       25.22       24.85       24.36    
  24    27.82       27.82       27.81       27.80       27.78       27.75       27.73       27.69       27.66       27.61    
        27.56       27.51       27.45       27.38       27.31       27.23       27.14       27.04       26.93       26.81    
        26.68       26.54       26.38       26.20       26.00       25.78       25.52       25.22       24.85       24.36    
  25    27.82       27.82       27.81       27.80       27.78       27.75       27.73       27.69       27.66       27.61    
        27.56       27.51       27.45       27.38       27.31       27.23       27.14       27.04       26.93       26.81    
        26.68       26.54       26.38       26.20       26.00       25.78       25.52       25.22       24.85       24.36    
  26    27.82       27.82       27.81       27.80       27.78       27.75       27.73       27.69       27.66       27.61    
        27.56       27.51       27.45       27.38       27.31       27.23       27.14       27.04       26.93       26.81    
        26.68       26.54       26.38       26.20       26.00       25.78       25.52       25.22       24.85       24.36    
  27    27.82       27.82       27.81       27.80       27.78       27.75       27.73       27.69       27.66       27.61    
        27.56       27.51       27.45       27.38       27.31       27.23       27.14       27.04       26.93       26.81    
        26.68       26.54       26.38       26.20       26.00       25.78       25.52       25.22       24.85       24.36    
  28    27.82       27.82       27.81       27.80       27.78       27.75       27.73       27.69       27.66       27.61    
        27.56       27.51       27.45       27.38       27.31       27.23       27.14       27.04       26.93       26.81    
        26.68       26.54       26.38       26.20       26.00       25.78       25.52       25.22       24.85       24.36    
  29    27.82       27.82       27.81       27.80       27.78       27.75       27.73       27.69       27.66       27.61    
        27.56       27.51       27.45       27.38       27.31       27.23       27.14       27.04       26.93       26.81    
        26.68       26.54       26.38       26.20       26.00       25.78       25.52       25.22       24.85       24.36    
  30    27.82       27.82       27.81       27.80       27.78       27.75       27.73       27.69       27.66       27.61    
        27.56       27.51       27.45       27.38       27.31       27.23       27.14       27.04       26.93       26.81    
        26.68       26.54       26.38       26.20       26.00       25.78       25.52       25.22       24.85       24.36    

 HEAD WILL BE SAVED ON UNIT 1017 AT END OF TIME STEP   10, STRESS PERIOD   23


  VOLUME BUDGET FOR ENTIRE MODEL AT END OF TIME STEP   10, STRESS PERIOD  23
  ---------------------------------------------------------------------------------------------------

     CUMULATIVE VOLUME      L**3       RATES FOR THIS TIME STEP      L**3/T          PACKAGE NAME    
     ------------------                 ------------------------                     ----------------

           IN:                                      IN:
           ---                                      ---
              STO-SS =          40.3180                STO-SS =       1.1115E-02     STORAGE         
              STO-SY =       25530.5019                STO-SY =           7.6952     STORAGE         
                 RCH =      105353.4600                   RCH =         214.5203     RCHA            
                 CHD =           0.0000                   CHD =           0.0000     CHD             

            TOTAL IN =      130924.2799              TOTAL IN =         222.2266

          OUT:                                     OUT:
          ----                                     ----
              STO-SS =          20.3086                STO-SS =       3.5033E-02     STORAGE         
              STO-SY =       12988.9543                STO-SY =          21.6750     STORAGE         
                 RCH =           0.0000                   RCH =           0.0000     RCHA            
                 CHD =      117914.0322                   CHD =         200.5135     CHD             

           TOTAL OUT =      130923.2951             TOTAL OUT =         222.2235

            IN - OUT =           0.9848              IN - OUT =       3.0677E-03

 PERCENT DISCREPANCY =           0.00     PERCENT DISCREPANCY =           0.00




         TIME SUMMARY AT END OF TIME STEP   10 IN STRESS PERIOD   23
                    SECONDS     MINUTES      HOURS       DAYS        YEARS
                    -----------------------------------------------------------
   TIME STEP LENGTH 2.59200E+05  4320.0      72.000      3.0000     8.21355E-03
 STRESS PERIOD TIME 2.59200E+06  43200.      720.00      30.000     8.21355E-02
         TOTAL TIME 5.71104E+07 9.51840E+05  15864.      661.00      1.8097    

 OUTPUT CONTROL FOR STRESS PERIOD 24 IS REPEATED USING SETTINGS FROM A PREVIOUS STRESS PERIOD.


 STRESS PERIOD 24 IS TRANSIENT


                 RECHARGE =  0.2739730E-02
 UBDSV1 SAVING           STO-SS ON UNIT   1016 AT TIME STEP      1, STRESS PERIOD     24
 UBDSV1 SAVING           STO-SY ON UNIT   1016 AT TIME STEP      1, STRESS PERIOD     24
 UBDSV1 SAVING     FLOW-JA-FACE ON UNIT   1016 AT TIME STEP      1, STRESS PERIOD     24
 UBDSV06 SAVING              RCH IN MODEL TEST_TRANS       PACKAGE TEST_TRANS      CONNECTED TO MODEL TEST_TRANS       PACKAGE RCHA             ON UNIT   1016 AT TIME STEP      1, STRESS PERIOD     24
 UBDSV06 SAVING              CHD IN MODEL TEST_TRANS       PACKAGE TEST_TRANS      CONNECTED TO MODEL TEST_TRANS       PACKAGE CHD              ON UNIT   1016 AT TIME STEP      1, STRESS PERIOD     24
1
  HEAD IN LAYER   1 AT END OF TIME STEP   1 IN STRESS PERIOD   24
  ---------------------------------------------------------------------------

            1           2           3           4           5           6           7           8           9          10
           11          12          13          14          15          16          17          18          19          20
           21          22          23          24          25          26          27          28          29          30
 ........................................................................................................................
   1    27.83       27.83       27.82       27.81       27.79       27.77       27.74       27.70       27.67       27.62    
        27.57       27.52       27.46       27.39       27.32       27.23       27.14       27.04       26.93       26.82    
        26.68       26.54       26.38       26.20       26.00       25.78       25.52       25.22       24.85       24.34    
   2    27.83       27.83       27.82       27.81       27.79       27.77       27.74       27.70       27.67       27.62    
        27.57       27.52       27.46       27.39       27.32       27.23       27.14       27.04       26.93       26.82    
        26.68       26.54       26.38       26.20       26.00       25.78       25.52       25.22       24.85       24.34    
   3    27.83       27.83       27.82       27.81       27.79       27.77       27.74       27.70       27.67       27.62    
        27.57       27.52       27.46       27.39       27.32       27.23       27.14       27.04       26.93       26.82    
        26.68       26.54       26.38       26.20       26.00       25.78       25.52       25.22       24.85       24.34    
   4    27.83       27.83       27.82       27.81       27.79       27.77       27.74       27.70       27.67       27.62    
        27.57       27.52       27.46       27.39       27.32       27.23       27.14       27.04       26.93       26.82    
        26.68       26.54       26.38       26.20       26.00       25.78       25.52       25.22       24.85       24.34    
   5    27.83       27.83       27.82       27.81       27.79       27.77       27.74       27.70       27.67       27.62    
        27.57       27.52       27.46       27.39       27.32       27.23       27.14       27.04       26.93       26.82    
        26.68       26.54       26.38       26.20       26.00       25.78       25.52       25.22       24.85       24.34    
   6    27.83       27.83       27.82       27.81       27.79       27.77       27.74       27.70       27.67       27.62    
        27.57       27.52       27.46       27.39       27.32       27.23       27.14       27.04       26.93       26.82    
        26.68       26.54       26.38       26.20       26.00       25.78       25.52       25.22       24.85       24.34    
   7    27.83       27.83       27.82       27.81       27.79       27.77       27.74       27.70       27.67       27.62    
        27.57       27.52       27.46       27.39       27.32       27.23       27.14       27.04       26.93       26.82    
        26.68       26.54       26.38       26.20       26.00       25.78       25.52       25.22       24.85       24.34    
   8    27.83       27.83       27.82       27.81       27.79       27.77       27.74       27.70       27.67       27.62    
        27.57       27.52       27.46       27.39       27.32       27.23       27.14       27.04       26.93       26.82    
        26.68       26.54       26.38       26.20       26.00       25.78       25.52       25.22       24.85       24.34    
   9    27.83       27.83       27.82       27.81       27.79       27.77       27.74       27.70       27.67       27.62    
        27.57       27.52       27.46       27.39       27.32       27.23       27.14       27.04       26.93       26.82    
        26.68       26.54       26.38       26.20       26.00       25.78       25.52       25.22       24.85       24.34    
  10    27.83       27.83       27.82       27.81       27.79       27.77       27.74       27.70       27.67       27.62    
        27.57       27.52       27.46       27.39       27.32       27.23       27.14       27.04       26.93       26.82    
        26.68       26.54       26.38       26.20       26.00       25.78       25.52       25.22       24.85       24.34    
  11    27.83       27.83       27.82       27.81       27.79       27.77       27.74       27.70       27.67       27.62    
        27.57       27.52       27.46       27.39       27.32       27.23       27.14       27.04       26.93       26.82    
        26.68       26.54       26.38       26.20       26.00       25.78       25.52       25.22       24.85       24.34    
  12    27.83       27.83       27.82       27.81       27.79       27.77       27.74       27.70       27.67       27.62    
        27.57       27.52       27.46       27.39       27.32       27.23       27.14       27.04       26.93       26.82    
        26.68       26.54       26.38       26.20       26.00       25.78       25.52       25.22       24.85       24.34    
  13    27.83       27.83       27.82       27.81       27.79       27.77       27.74       27.70       27.67       27.62    
        27.57       27.52       27.46       27.39       27.32       27.23       27.14       27.04       26.93       26.82    
        26.68       26.54       26.38       26.20       26.00       25.78       25.52       25.22       24.85       24.34    
  14    27.83       27.83       27.82       27.81       27.79       27.77       27.74       27.70       27.67       27.62    
        27.57       27.52       27.46       27.39       27.32       27.23       27.14       27.04       26.93       26.82    
        26.68       26.54       26.38       26.20       26.00       25.78       25.52       25.22       24.85       24.34    
  15    27.83       27.83       27.82       27.81       27.79       27.77       27.74       27.70       27.67       27.62    
        27.57       27.52       27.46       27.39       27.32       27.23       27.14       27.04       26.93       26.82    
        26.68       26.54       26.38       26.20       26.00       25.78       25.52       25.22       24.85       24.34    
  16    27.83       27.83       27.82       27.81       27.79       27.77       27.74       27.70       27.67       27.62    
        27.57       27.52       27.46       27.39       27.32       27.23       27.14       27.04       26.93       26.82    
        26.68       26.54       26.38       26.20       26.00       25.78       25.52       25.22       24.85       24.34    
  17    27.83       27.83       27.82       27.81       27.79       27.77       27.74       27.70       27.67       27.62    
        27.57       27.52       27.46       27.39       27.32       27.23       27.14       27.04       26.93       26.82    
        26.68       26.54       26.38       26.20       26.00       25.78       25.52       25.22       24.85       24.34    
  18    27.83       27.83       27.82       27.81       27.79       27.77       27.74       27.70       27.67       27.62    
        27.57       27.52       27.46       27.39       27.32       27.23       27.14       27.04       26.93       26.82    
        26.68       26.54       26.38       26.20       26.00       25.78       25.52       25.22       24.85       24.34    
  19    27.83       27.83       27.82       27.81       27.79       27.77       27.74       27.70       27.67       27.62    
        27.57       27.52       27.46       27.39       27.32       27.23       27.14       27.04       26.93       26.82    
        26.68       26.54       26.38       26.20       26.00       25.78       25.52       25.22       24.85       24.34    
  20    27.83       27.83       27.82       27.81       27.79       27.77       27.74       27.70       27.67       27.62    
        27.57       27.52       27.46       27.39       27.32       27.23       27.14       27.04       26.93       26.82    
        26.68       26.54       26.38       26.20       26.00       25.78       25.52       25.22       24.85       24.34    
  21    27.83       27.83       27.82       27.81       27.79       27.77       27.74       27.70       27.67       27.62    
        27.57       27.52       27.46       27.39       27.32       27.23       27.14       27.04       26.93       26.82    
        26.68       26.54       26.38       26.20       26.00       25.78       25.52       25.22       24.85       24.34    
  22    27.83       27.83       27.82       27.81       27.79       27.77       27.74       27.70       27.67       27.62    
        27.57       27.52       27.46       27.39       27.32       27.23       27.14       27.04       26.93       26.82    
        26.68       26.54       26.38       26.20       26.00       25.78       25.52       25.22       24.85       24.34    
  23    27.83       27.83       27.82       27.81       27.79       27.77       27.74       27.70       27.67       27.62    
        27.57       27.52       27.46       27.39       27.32       27.23       27.14       27.04       26.93       26.82    
        26.68       26.54       26.38       26.20       26.00       25.78       25.52       25.22       24.85       24.34    
  24    27.83       27.83       27.82       27.81       27.79       27.77       27.74       27.70       27.67       27.62    
        27.57       27.52       27.46       27.39       27.32       27.23       27.14       27.04       26.93       26.82    
        26.68       26.54       26.38       26.20       26.00       25.78       25.52       25.22       24.85       24.34    
  25    27.83       27.83       27.82       27.81       27.79       27.77       27.74       27.70       27.67       27.62    
        27.57       27.52       27.46       27.39       27.32       27.23       27.14       27.04       26.93       26.82    
        26.68       26.54       26.38       26.20       26.00       25.78       25.52       25.22       24.85       24.34    
  26    27.83       27.83       27.82       27.81       27.79       27.77       27.74       27.70       27.67       27.62    
        27.57       27.52       27.46       27.39       27.32       27.23       27.14       27.04       26.93       26.82    
        26.68       26.54       26.38       26.20       26.00       25.78       25.52       25.22       24.85       24.34    
  27    27.83       27.83       27.82       27.81       27.79       27.77       27.74       27.70       27.67       27.62    
        27.57       27.52       27.46       27.39       27.32       27.23       27.14       27.04       26.93       26.82    
        26.68       26.54       26.38       26.20       26.00       25.78       25.52       25.22       24.85       24.34    
  28    27.83       27.83       27.82       27.81       27.79       27.77       27.74       27.70       27.67       27.62    
        27.57       27.52       27.46       27.39       27.32       27.23       27.14       27.04       26.93       26.82    
        26.68       26.54       26.38       26.20       26.00       25.78       25.52       25.22       24.85       24.34    
  29    27.83       27.83       27.82       27.81       27.79       27.77       27.74       27.70       27.67       27.62    
        27.57       27.52       27.46       27.39       27.32       27.23       27.14       27.04       26.93       26.82    
        26.68       26.54       26.38       26.20       26.00       25.78       25.52       25.22       24.85       24.34    
  30    27.83       27.83       27.82       27.81       27.79       27.77       27.74       27.70       27.67       27.62    
        27.57       27.52       27.46       27.39       27.32       27.23       27.14       27.04       26.93       26.82    
        26.68       26.54       26.38       26.20       26.00       25.78       25.52       25.22       24.85       24.34    

 HEAD WILL BE SAVED ON UNIT 1017 AT END OF TIME STEP    1, STRESS PERIOD   24



         TIME SUMMARY AT END OF TIME STEP    1 IN STRESS PERIOD   24
                    SECONDS     MINUTES      HOURS       DAYS        YEARS
                    -----------------------------------------------------------
   TIME STEP LENGTH 2.59200E+05  4320.0      72.000      3.0000     8.21355E-03
 STRESS PERIOD TIME 2.59200E+05  4320.0      72.000      3.0000     8.21355E-03
         TOTAL TIME 5.73696E+07 9.56160E+05  15936.      664.00      1.8179    
 UBDSV1 SAVING           STO-SS ON UNIT   1016 AT TIME STEP      2, STRESS PERIOD     24
 UBDSV1 SAVING           STO-SY ON UNIT   1016 AT TIME STEP      2, STRESS PERIOD     24
 UBDSV1 SAVING     FLOW-JA-FACE ON UNIT   1016 AT TIME STEP      2, STRESS PERIOD     24
 UBDSV06 SAVING              RCH IN MODEL TEST_TRANS       PACKAGE TEST_TRANS      CONNECTED TO MODEL TEST_TRANS       PACKAGE RCHA             ON UNIT   1016 AT TIME STEP      2, STRESS PERIOD     24
 UBDSV06 SAVING              CHD IN MODEL TEST_TRANS       PACKAGE TEST_TRANS      CONNECTED TO MODEL TEST_TRANS       PACKAGE CHD              ON UNIT   1016 AT TIME STEP      2, STRESS PERIOD     24

 HEAD WILL BE SAVED ON UNIT 1017 AT END OF TIME STEP    2, STRESS PERIOD   24
 UBDSV1 SAVING           STO-SS ON UNIT   1016 AT TIME STEP      3, STRESS PERIOD     24
 UBDSV1 SAVING           STO-SY ON UNIT   1016 AT TIME STEP      3, STRESS PERIOD     24
 UBDSV1 SAVING     FLOW-JA-FACE ON UNIT   1016 AT TIME STEP      3, STRESS PERIOD     24
 UBDSV06 SAVING              RCH IN MODEL TEST_TRANS       PACKAGE TEST_TRANS      CONNECTED TO MODEL TEST_TRANS       PACKAGE RCHA             ON UNIT   1016 AT TIME STEP      3, STRESS PERIOD     24
 UBDSV06 SAVING              CHD IN MODEL TEST_TRANS       PACKAGE TEST_TRANS      CONNECTED TO MODEL TEST_TRANS       PACKAGE CHD              ON UNIT   1016 AT TIME STEP      3, STRESS PERIOD     24

 HEAD WILL BE SAVED ON UNIT 1017 AT END OF TIME STEP    3, STRESS PERIOD   24
 UBDSV1 SAVING           STO-SS ON UNIT   1016 AT TIME STEP      4, STRESS PERIOD     24
 UBDSV1 SAVING           STO-SY ON UNIT   1016 AT TIME STEP      4, STRESS PERIOD     24
 UBDSV1 SAVING     FLOW-JA-FACE ON UNIT   1016 AT TIME STEP      4, STRESS PERIOD     24
 UBDSV06 SAVING              RCH IN MODEL TEST_TRANS       PACKAGE TEST_TRANS      CONNECTED TO MODEL TEST_TRANS       PACKAGE RCHA             ON UNIT   1016 AT TIME STEP      4, STRESS PERIOD     24
 UBDSV06 SAVING              CHD IN MODEL TEST_TRANS       PACKAGE TEST_TRANS      CONNECTED TO MODEL TEST_TRANS       PACKAGE CHD              ON UNIT   1016 AT TIME STEP      4, STRESS PERIOD     24

 HEAD WILL BE SAVED ON UNIT 1017 AT END OF TIME STEP    4, STRESS PERIOD   24
 UBDSV1 SAVING           STO-SS ON UNIT   1016 AT TIME STEP      5, STRESS PERIOD     24
 UBDSV1 SAVING           STO-SY ON UNIT   1016 AT TIME STEP      5, STRESS PERIOD     24
 UBDSV1 SAVING     FLOW-JA-FACE ON UNIT   1016 AT TIME STEP      5, STRESS PERIOD     24
 UBDSV06 SAVING              RCH IN MODEL TEST_TRANS       PACKAGE TEST_TRANS      CONNECTED TO MODEL TEST_TRANS       PACKAGE RCHA             ON UNIT   1016 AT TIME STEP      5, STRESS PERIOD     24
 UBDSV06 SAVING              CHD IN MODEL TEST_TRANS       PACKAGE TEST_TRANS      CONNECTED TO MODEL TEST_TRANS       PACKAGE CHD              ON UNIT   1016 AT TIME STEP      5, STRESS PERIOD     24

 HEAD WILL BE SAVED ON UNIT 1017 AT END OF TIME STEP    5, STRESS PERIOD   24
 UBDSV1 SAVING           STO-SS ON UNIT   1016 AT TIME STEP      6, STRESS PERIOD     24
 UBDSV1 SAVING           STO-SY ON UNIT   1016 AT TIME STEP      6, STRESS PERIOD     24
 UBDSV1 SAVING     FLOW-JA-FACE ON UNIT   1016 AT TIME STEP      6, STRESS PERIOD     24
 UBDSV06 SAVING              RCH IN MODEL TEST_TRANS       PACKAGE TEST_TRANS      CONNECTED TO MODEL TEST_TRANS       PACKAGE RCHA             ON UNIT   1016 AT TIME STEP      6, STRESS PERIOD     24
 UBDSV06 SAVING              CHD IN MODEL TEST_TRANS       PACKAGE TEST_TRANS      CONNECTED TO MODEL TEST_TRANS       PACKAGE CHD              ON UNIT   1016 AT TIME STEP      6, STRESS PERIOD     24

 HEAD WILL BE SAVED ON UNIT 1017 AT END OF TIME STEP    6, STRESS PERIOD   24
 UBDSV1 SAVING           STO-SS ON UNIT   1016 AT TIME STEP      7, STRESS PERIOD     24
 UBDSV1 SAVING           STO-SY ON UNIT   1016 AT TIME STEP      7, STRESS PERIOD     24
 UBDSV1 SAVING     FLOW-JA-FACE ON UNIT   1016 AT TIME STEP      7, STRESS PERIOD     24
 UBDSV06 SAVING              RCH IN MODEL TEST_TRANS       PACKAGE TEST_TRANS      CONNECTED TO MODEL TEST_TRANS       PACKAGE RCHA             ON UNIT   1016 AT TIME STEP      7, STRESS PERIOD     24
 UBDSV06 SAVING              CHD IN MODEL TEST_TRANS       PACKAGE TEST_TRANS      CONNECTED TO MODEL TEST_TRANS       PACKAGE CHD              ON UNIT   1016 AT TIME STEP      7, STRESS PERIOD     24

 HEAD WILL BE SAVED ON UNIT 1017 AT END OF TIME STEP    7, STRESS PERIOD   24
 UBDSV1 SAVING           STO-SS ON UNIT   1016 AT TIME STEP      8, STRESS PERIOD     24
 UBDSV1 SAVING           STO-SY ON UNIT   1016 AT TIME STEP      8, STRESS PERIOD     24
 UBDSV1 SAVING     FLOW-JA-FACE ON UNIT   1016 AT TIME STEP      8, STRESS PERIOD     24
 UBDSV06 SAVING              RCH IN MODEL TEST_TRANS       PACKAGE TEST_TRANS      CONNECTED TO MODEL TEST_TRANS       PACKAGE RCHA             ON UNIT   1016 AT TIME STEP      8, STRESS PERIOD     24
 UBDSV06 SAVING              CHD IN MODEL TEST_TRANS       PACKAGE TEST_TRANS      CONNECTED TO MODEL TEST_TRANS       PACKAGE CHD              ON UNIT   1016 AT TIME STEP      8, STRESS PERIOD     24

 HEAD WILL BE SAVED ON UNIT 1017 AT END OF TIME STEP    8, STRESS PERIOD   24
 UBDSV1 SAVING           STO-SS ON UNIT   1016 AT TIME STEP      9, STRESS PERIOD     24
 UBDSV1 SAVING           STO-SY ON UNIT   1016 AT TIME STEP      9, STRESS PERIOD     24
 UBDSV1 SAVING     FLOW-JA-FACE ON UNIT   1016 AT TIME STEP      9, STRESS PERIOD     24
 UBDSV06 SAVING              RCH IN MODEL TEST_TRANS       PACKAGE TEST_TRANS      CONNECTED TO MODEL TEST_TRANS       PACKAGE RCHA             ON UNIT   1016 AT TIME STEP      9, STRESS PERIOD     24
 UBDSV06 SAVING              CHD IN MODEL TEST_TRANS       PACKAGE TEST_TRANS      CONNECTED TO MODEL TEST_TRANS       PACKAGE CHD              ON UNIT   1016 AT TIME STEP      9, STRESS PERIOD     24

 HEAD WILL BE SAVED ON UNIT 1017 AT END OF TIME STEP    9, STRESS PERIOD   24
 UBDSV1 SAVING           STO-SS ON UNIT   1016 AT TIME STEP     10, STRESS PERIOD     24
 UBDSV1 SAVING           STO-SY ON UNIT   1016 AT TIME STEP     10, STRESS PERIOD     24
 UBDSV1 SAVING     FLOW-JA-FACE ON UNIT   1016 AT TIME STEP     10, STRESS PERIOD     24
 UBDSV06 SAVING              RCH IN MODEL TEST_TRANS       PACKAGE TEST_TRANS      CONNECTED TO MODEL TEST_TRANS       PACKAGE RCHA             ON UNIT   1016 AT TIME STEP     10, STRESS PERIOD     24
 UBDSV06 SAVING              CHD IN MODEL TEST_TRANS       PACKAGE TEST_TRANS      CONNECTED TO MODEL TEST_TRANS       PACKAGE CHD              ON UNIT   1016 AT TIME STEP     10, STRESS PERIOD     24
1
  HEAD IN LAYER   1 AT END OF TIME STEP  10 IN STRESS PERIOD   24
  ---------------------------------------------------------------------------

            1           2           3           4           5           6           7           8           9          10
           11          12          13          14          15          16          17          18          19          20
           21          22          23          24          25          26          27          28          29          30
 ........................................................................................................................
   1    27.93       27.93       27.92       27.90       27.88       27.86       27.83       27.79       27.75       27.70    
        27.65       27.59       27.53       27.46       27.38       27.29       27.19       27.09       26.97       26.85    
        26.71       26.56       26.40       26.22       26.01       25.79       25.52       25.22       24.84       24.34    
   2    27.93       27.93       27.92       27.90       27.88       27.86       27.83       27.79       27.75       27.70    
        27.65       27.59       27.53       27.46       27.38       27.29       27.19       27.09       26.97       26.85    
        26.71       26.56       26.40       26.22       26.01       25.79       25.52       25.22       24.84       24.34    
   3    27.93       27.93       27.92       27.90       27.88       27.86       27.83       27.79       27.75       27.70    
        27.65       27.59       27.53       27.46       27.38       27.29       27.19       27.09       26.97       26.85    
        26.71       26.56       26.40       26.22       26.01       25.79       25.52       25.22       24.84       24.34    
   4    27.93       27.93       27.92       27.90       27.88       27.86       27.83       27.79       27.75       27.70    
        27.65       27.59       27.53       27.46       27.38       27.29       27.19       27.09       26.97       26.85    
        26.71       26.56       26.40       26.22       26.01       25.79       25.52       25.22       24.84       24.34    
   5    27.93       27.93       27.92       27.90       27.88       27.86       27.83       27.79       27.75       27.70    
        27.65       27.59       27.53       27.46       27.38       27.29       27.19       27.09       26.97       26.85    
        26.71       26.56       26.40       26.22       26.01       25.79       25.52       25.22       24.84       24.34    
   6    27.93       27.93       27.92       27.90       27.88       27.86       27.83       27.79       27.75       27.70    
        27.65       27.59       27.53       27.46       27.38       27.29       27.19       27.09       26.97       26.85    
        26.71       26.56       26.40       26.22       26.01       25.79       25.52       25.22       24.84       24.34    
   7    27.93       27.93       27.92       27.90       27.88       27.86       27.83       27.79       27.75       27.70    
        27.65       27.59       27.53       27.46       27.38       27.29       27.19       27.09       26.97       26.85    
        26.71       26.56       26.40       26.22       26.01       25.79       25.52       25.22       24.84       24.34    
   8    27.93       27.93       27.92       27.90       27.88       27.86       27.83       27.79       27.75       27.70    
        27.65       27.59       27.53       27.46       27.38       27.29       27.19       27.09       26.97       26.85    
        26.71       26.56       26.40       26.22       26.01       25.79       25.52       25.22       24.84       24.34    
   9    27.93       27.93       27.92       27.90       27.88       27.86       27.83       27.79       27.75       27.70    
        27.65       27.59       27.53       27.46       27.38       27.29       27.19       27.09       26.97       26.85    
        26.71       26.56       26.40       26.22       26.01       25.79       25.52       25.22       24.84       24.34    
  10    27.93       27.93       27.92       27.90       27.88       27.86       27.83       27.79       27.75       27.70    
        27.65       27.59       27.53       27.46       27.38       27.29       27.19       27.09       26.97       26.85    
        26.71       26.56       26.40       26.22       26.01       25.79       25.52       25.22       24.84       24.34    
  11    27.93       27.93       27.92       27.90       27.88       27.86       27.83       27.79       27.75       27.70    
        27.65       27.59       27.53       27.46       27.38       27.29       27.19       27.09       26.97       26.85    
        26.71       26.56       26.40       26.22       26.01       25.79       25.52       25.22       24.84       24.34    
  12    27.93       27.93       27.92       27.90       27.88       27.86       27.83       27.79       27.75       27.70    
        27.65       27.59       27.53       27.46       27.38       27.29       27.19       27.09       26.97       26.85    
        26.71       26.56       26.40       26.22       26.01       25.79       25.52       25.22       24.84       24.34    
  13    27.93       27.93       27.92       27.90       27.88       27.86       27.83       27.79       27.75       27.70    
        27.65       27.59       27.53       27.46       27.38       27.29       27.19       27.09       26.97       26.85    
        26.71       26.56       26.40       26.22       26.01       25.79       25.52       25.22       24.84       24.34    
  14    27.93       27.93       27.92       27.90       27.88       27.86       27.83       27.79       27.75       27.70    
        27.65       27.59       27.53       27.46       27.38       27.29       27.19       27.09       26.97       26.85    
        26.71       26.56       26.40       26.22       26.01       25.79       25.52       25.22       24.84       24.34    
  15    27.93       27.93       27.92       27.90       27.88       27.86       27.83       27.79       27.75       27.70    
        27.65       27.59       27.53       27.46       27.38       27.29       27.19       27.09       26.97       26.85    
        26.71       26.56       26.40       26.22       26.01       25.79       25.52       25.22       24.84       24.34    
  16    27.93       27.93       27.92       27.90       27.88       27.86       27.83       27.79       27.75       27.70    
        27.65       27.59       27.53       27.46       27.38       27.29       27.19       27.09       26.97       26.85    
        26.71       26.56       26.40       26.22       26.01       25.79       25.52       25.22       24.84       24.34    
  17    27.93       27.93       27.92       27.90       27.88       27.86       27.83       27.79       27.75       27.70    
        27.65       27.59       27.53       27.46       27.38       27.29       27.19       27.09       26.97       26.85    
        26.71       26.56       26.40       26.22       26.01       25.79       25.52       25.22       24.84       24.34    
  18    27.93       27.93       27.92       27.90       27.88       27.86       27.83       27.79       27.75       27.70    
        27.65       27.59       27.53       27.46       27.38       27.29       27.19       27.09       26.97       26.85    
        26.71       26.56       26.40       26.22       26.01       25.79       25.52       25.22       24.84       24.34    
  19    27.93       27.93       27.92       27.90       27.88       27.86       27.83       27.79       27.75       27.70    
        27.65       27.59       27.53       27.46       27.38       27.29       27.19       27.09       26.97       26.85    
        26.71       26.56       26.40       26.22       26.01       25.79       25.52       25.22       24.84       24.34    
  20    27.93       27.93       27.92       27.90       27.88       27.86       27.83       27.79       27.75       27.70    
        27.65       27.59       27.53       27.46       27.38       27.29       27.19       27.09       26.97       26.85    
        26.71       26.56       26.40       26.22       26.01       25.79       25.52       25.22       24.84       24.34    
  21    27.93       27.93       27.92       27.90       27.88       27.86       27.83       27.79       27.75       27.70    
        27.65       27.59       27.53       27.46       27.38       27.29       27.19       27.09       26.97       26.85    
        26.71       26.56       26.40       26.22       26.01       25.79       25.52       25.22       24.84       24.34    
  22    27.93       27.93       27.92       27.90       27.88       27.86       27.83       27.79       27.75       27.70    
        27.65       27.59       27.53       27.46       27.38       27.29       27.19       27.09       26.97       26.85    
        26.71       26.56       26.40       26.22       26.01       25.79       25.52       25.22       24.84       24.34    
  23    27.93       27.93       27.92       27.90       27.88       27.86       27.83       27.79       27.75       27.70    
        27.65       27.59       27.53       27.46       27.38       27.29       27.19       27.09       26.97       26.85    
        26.71       26.56       26.40       26.22       26.01       25.79       25.52       25.22       24.84       24.34    
  24    27.93       27.93       27.92       27.90       27.88       27.86       27.83       27.79       27.75       27.70    
        27.65       27.59       27.53       27.46       27.38       27.29       27.19       27.09       26.97       26.85    
        26.71       26.56       26.40       26.22       26.01       25.79       25.52       25.22       24.84       24.34    
  25    27.93       27.93       27.92       27.90       27.88       27.86       27.83       27.79       27.75       27.70    
        27.65       27.59       27.53       27.46       27.38       27.29       27.19       27.09       26.97       26.85    
        26.71       26.56       26.40       26.22       26.01       25.79       25.52       25.22       24.84       24.34    
  26    27.93       27.93       27.92       27.90       27.88       27.86       27.83       27.79       27.75       27.70    
        27.65       27.59       27.53       27.46       27.38       27.29       27.19       27.09       26.97       26.85    
        26.71       26.56       26.40       26.22       26.01       25.79       25.52       25.22       24.84       24.34    
  27    27.93       27.93       27.92       27.90       27.88       27.86       27.83       27.79       27.75       27.70    
        27.65       27.59       27.53       27.46       27.38       27.29       27.19       27.09       26.97       26.85    
        26.71       26.56       26.40       26.22       26.01       25.79       25.52       25.22       24.84       24.34    
  28    27.93       27.93       27.92       27.90       27.88       27.86       27.83       27.79       27.75       27.70    
        27.65       27.59       27.53       27.46       27.38       27.29       27.19       27.09       26.97       26.85    
        26.71       26.56       26.40       26.22       26.01       25.79       25.52       25.22       24.84       24.34    
  29    27.93       27.93       27.92       27.90       27.88       27.86       27.83       27.79       27.75       27.70    
        27.65       27.59       27.53       27.46       27.38       27.29       27.19       27.09       26.97       26.85    
        26.71       26.56       26.40       26.22       26.01       25.79       25.52       25.22       24.84       24.34    
  30    27.93       27.93       27.92       27.90       27.88       27.86       27.83       27.79       27.75       27.70    
        27.65       27.59       27.53       27.46       27.38       27.29       27.19       27.09       26.97       26.85    
        26.71       26.56       26.40       26.22       26.01       25.79       25.52       25.22       24.84       24.34    

 HEAD WILL BE SAVED ON UNIT 1017 AT END OF TIME STEP   10, STRESS PERIOD   24


  VOLUME BUDGET FOR ENTIRE MODEL AT END OF TIME STEP   10, STRESS PERIOD  24
  ---------------------------------------------------------------------------------------------------

     CUMULATIVE VOLUME      L**3       RATES FOR THIS TIME STEP      L**3/T          PACKAGE NAME    
     ------------------                 ------------------------                     ----------------

           IN:                                      IN:
           ---                                      ---
              STO-SS =          40.3449                STO-SS =           0.0000     STORAGE         
              STO-SY =       25550.1160                STO-SY =           0.0000     STORAGE         
                 RCH =      112504.1553                   RCH =         238.3565     RCHA            
                 CHD =           0.0000                   CHD =           0.0000     CHD             

            TOTAL IN =      138094.6162              TOTAL IN =         238.3565

          OUT:                                     OUT:
          ----                                     ----
              STO-SS =          22.0424                STO-SS =       5.5728E-02     STORAGE         
              STO-SY =       14070.6946                STO-SY =          34.9056     STORAGE         
                 RCH =           0.0000                   RCH =           0.0000     RCHA            
                 CHD =      124001.1455                   CHD =         203.4035     CHD             

           TOTAL OUT =      138093.8825             TOTAL OUT =         238.3649

            IN - OUT =           0.7337              IN - OUT =      -8.3904E-03

 PERCENT DISCREPANCY =           0.00     PERCENT DISCREPANCY =          -0.00




         TIME SUMMARY AT END OF TIME STEP   10 IN STRESS PERIOD   24
                    SECONDS     MINUTES      HOURS       DAYS        YEARS
                    -----------------------------------------------------------
   TIME STEP LENGTH 2.59200E+05  4320.0      72.000      3.0000     8.21355E-03
 STRESS PERIOD TIME 2.59200E+06  43200.      720.00      30.000     8.21355E-02
         TOTAL TIME 5.97024E+07 9.95040E+05  16584.      691.00      1.8919    

 OUTPUT CONTROL FOR STRESS PERIOD 25 IS REPEATED USING SETTINGS FROM A PREVIOUS STRESS PERIOD.


 STRESS PERIOD 25 IS TRANSIENT


                 RECHARGE =  0.2739730E-02
 UBDSV1 SAVING           STO-SS ON UNIT   1016 AT TIME STEP      1, STRESS PERIOD     25
 UBDSV1 SAVING           STO-SY ON UNIT   1016 AT TIME STEP      1, STRESS PERIOD     25
 UBDSV1 SAVING     FLOW-JA-FACE ON UNIT   1016 AT TIME STEP      1, STRESS PERIOD     25
 UBDSV06 SAVING              RCH IN MODEL TEST_TRANS       PACKAGE TEST_TRANS      CONNECTED TO MODEL TEST_TRANS       PACKAGE RCHA             ON UNIT   1016 AT TIME STEP      1, STRESS PERIOD     25
 UBDSV06 SAVING              CHD IN MODEL TEST_TRANS       PACKAGE TEST_TRANS      CONNECTED TO MODEL TEST_TRANS       PACKAGE CHD              ON UNIT   1016 AT TIME STEP      1, STRESS PERIOD     25
1
  HEAD IN LAYER   1 AT END OF TIME STEP   1 IN STRESS PERIOD   25
  ---------------------------------------------------------------------------

            1           2           3           4           5           6           7           8           9          10
           11          12          13          14          15          16          17          18          19          20
           21          22          23          24          25          26          27          28          29          30
 ........................................................................................................................
   1    27.94       27.94       27.93       27.91       27.89       27.87       27.84       27.80       27.76       27.71    
        27.66       27.60       27.53       27.46       27.38       27.29       27.20       27.09       26.98       26.86    
        26.72       26.57       26.41       26.24       26.05       25.84       25.62       25.39       25.20       25.10    
   2    27.94       27.94       27.93       27.91       27.89       27.87       27.84       27.80       27.76       27.71    
        27.66       27.60       27.53       27.46       27.38       27.29       27.20       27.09       26.98       26.86    
        26.72       26.57       26.41       26.24       26.05       25.84       25.62       25.39       25.20       25.10    
   3    27.94       27.94       27.93       27.91       27.89       27.87       27.84       27.80       27.76       27.71    
        27.66       27.60       27.53       27.46       27.38       27.29       27.20       27.09       26.98       26.86    
        26.72       26.57       26.41       26.24       26.05       25.84       25.62       25.39       25.20       25.10    
   4    27.94       27.94       27.93       27.91       27.89       27.87       27.84       27.80       27.76       27.71    
        27.66       27.60       27.53       27.46       27.38       27.29       27.20       27.09       26.98       26.86    
        26.72       26.57       26.41       26.24       26.05       25.84       25.62       25.39       25.20       25.10    
   5    27.94       27.94       27.93       27.91       27.89       27.87       27.84       27.80       27.76       27.71    
        27.66       27.60       27.53       27.46       27.38       27.29       27.20       27.09       26.98       26.86    
        26.72       26.57       26.41       26.24       26.05       25.84       25.62       25.39       25.20       25.10    
   6    27.94       27.94       27.93       27.91       27.89       27.87       27.84       27.80       27.76       27.71    
        27.66       27.60       27.53       27.46       27.38       27.29       27.20       27.09       26.98       26.86    
        26.72       26.57       26.41       26.24       26.05       25.84       25.62       25.39       25.20       25.10    
   7    27.94       27.94       27.93       27.91       27.89       27.87       27.84       27.80       27.76       27.71    
        27.66       27.60       27.53       27.46       27.38       27.29       27.20       27.09       26.98       26.86    
        26.72       26.57       26.41       26.24       26.05       25.84       25.62       25.39       25.20       25.10    
   8    27.94       27.94       27.93       27.91       27.89       27.87       27.84       27.80       27.76       27.71    
        27.66       27.60       27.53       27.46       27.38       27.29       27.20       27.09       26.98       26.86    
        26.72       26.57       26.41       26.24       26.05       25.84       25.62       25.39       25.20       25.10    
   9    27.94       27.94       27.93       27.91       27.89       27.87       27.84       27.80       27.76       27.71    
        27.66       27.60       27.53       27.46       27.38       27.29       27.20       27.09       26.98       26.86    
        26.72       26.57       26.41       26.24       26.05       25.84       25.62       25.39       25.20       25.10    
  10    27.94       27.94       27.93       27.91       27.89       27.87       27.84       27.80       27.76       27.71    
        27.66       27.60       27.53       27.46       27.38       27.29       27.20       27.09       26.98       26.86    
        26.72       26.57       26.41       26.24       26.05       25.84       25.62       25.39       25.20       25.10    
  11    27.94       27.94       27.93       27.91       27.89       27.87       27.84       27.80       27.76       27.71    
        27.66       27.60       27.53       27.46       27.38       27.29       27.20       27.09       26.98       26.86    
        26.72       26.57       26.41       26.24       26.05       25.84       25.62       25.39       25.20       25.10    
  12    27.94       27.94       27.93       27.91       27.89       27.87       27.84       27.80       27.76       27.71    
        27.66       27.60       27.53       27.46       27.38       27.29       27.20       27.09       26.98       26.86    
        26.72       26.57       26.41       26.24       26.05       25.84       25.62       25.39       25.20       25.10    
  13    27.94       27.94       27.93       27.91       27.89       27.87       27.84       27.80       27.76       27.71    
        27.66       27.60       27.53       27.46       27.38       27.29       27.20       27.09       26.98       26.86    
        26.72       26.57       26.41       26.24       26.05       25.84       25.62       25.39       25.20       25.10    
  14    27.94       27.94       27.93       27.91       27.89       27.87       27.84       27.80       27.76       27.71    
        27.66       27.60       27.53       27.46       27.38       27.29       27.20       27.09       26.98       26.86    
        26.72       26.57       26.41       26.24       26.05       25.84       25.62       25.39       25.20       25.10    
  15    27.94       27.94       27.93       27.91       27.89       27.87       27.84       27.80       27.76       27.71    
        27.66       27.60       27.53       27.46       27.38       27.29       27.20       27.09       26.98       26.86    
        26.72       26.57       26.41       26.24       26.05       25.84       25.62       25.39       25.20       25.10    
  16    27.94       27.94       27.93       27.91       27.89       27.87       27.84       27.80       27.76       27.71    
        27.66       27.60       27.53       27.46       27.38       27.29       27.20       27.09       26.98       26.86    
        26.72       26.57       26.41       26.24       26.05       25.84       25.62       25.39       25.20       25.10    
  17    27.94       27.94       27.93       27.91       27.89       27.87       27.84       27.80       27.76       27.71    
        27.66       27.60       27.53       27.46       27.38       27.29       27.20       27.09       26.98       26.86    
        26.72       26.57       26.41       26.24       26.05       25.84       25.62       25.39       25.20       25.10    
  18    27.94       27.94       27.93       27.91       27.89       27.87       27.84       27.80       27.76       27.71    
        27.66       27.60       27.53       27.46       27.38       27.29       27.20       27.09       26.98       26.86    
        26.72       26.57       26.41       26.24       26.05       25.84       25.62       25.39       25.20       25.10    
  19    27.94       27.94       27.93       27.91       27.89       27.87       27.84       27.80       27.76       27.71    
        27.66       27.60       27.53       27.46       27.38       27.29       27.20       27.09       26.98       26.86    
        26.72       26.57       26.41       26.24       26.05       25.84       25.62       25.39       25.20       25.10    
  20    27.94       27.94       27.93       27.91       27.89       27.87       27.84       27.80       27.76       27.71    
        27.66       27.60       27.53       27.46       27.38       27.29       27.20       27.09       26.98       26.86    
        26.72       26.57       26.41       26.24       26.05       25.84       25.62       25.39       25.20       25.10    
  21    27.94       27.94       27.93       27.91       27.89       27.87       27.84       27.80       27.76       27.71    
        27.66       27.60       27.53       27.46       27.38       27.29       27.20       27.09       26.98       26.86    
        26.72       26.57       26.41       26.24       26.05       25.84       25.62       25.39       25.20       25.10    
  22    27.94       27.94       27.93       27.91       27.89       27.87       27.84       27.80       27.76       27.71    
        27.66       27.60       27.53       27.46       27.38       27.29       27.20       27.09       26.98       26.86    
        26.72       26.57       26.41       26.24       26.05       25.84       25.62       25.39       25.20       25.10    
  23    27.94       27.94       27.93       27.91       27.89       27.87       27.84       27.80       27.76       27.71    
        27.66       27.60       27.53       27.46       27.38       27.29       27.20       27.09       26.98       26.86    
        26.72       26.57       26.41       26.24       26.05       25.84       25.62       25.39       25.20       25.10    
  24    27.94       27.94       27.93       27.91       27.89       27.87       27.84       27.80       27.76       27.71    
        27.66       27.60       27.53       27.46       27.38       27.29       27.20       27.09       26.98       26.86    
        26.72       26.57       26.41       26.24       26.05       25.84       25.62       25.39       25.20       25.10    
  25    27.94       27.94       27.93       27.91       27.89       27.87       27.84       27.80       27.76       27.71    
        27.66       27.60       27.53       27.46       27.38       27.29       27.20       27.09       26.98       26.86    
        26.72       26.57       26.41       26.24       26.05       25.84       25.62       25.39       25.20       25.10    
  26    27.94       27.94       27.93       27.91       27.89       27.87       27.84       27.80       27.76       27.71    
        27.66       27.60       27.53       27.46       27.38       27.29       27.20       27.09       26.98       26.86    
        26.72       26.57       26.41       26.24       26.05       25.84       25.62       25.39       25.20       25.10    
  27    27.94       27.94       27.93       27.91       27.89       27.87       27.84       27.80       27.76       27.71    
        27.66       27.60       27.53       27.46       27.38       27.29       27.20       27.09       26.98       26.86    
        26.72       26.57       26.41       26.24       26.05       25.84       25.62       25.39       25.20       25.10    
  28    27.94       27.94       27.93       27.91       27.89       27.87       27.84       27.80       27.76       27.71    
        27.66       27.60       27.53       27.46       27.38       27.29       27.20       27.09       26.98       26.86    
        26.72       26.57       26.41       26.24       26.05       25.84       25.62       25.39       25.20       25.10    
  29    27.94       27.94       27.93       27.91       27.89       27.87       27.84       27.80       27.76       27.71    
        27.66       27.60       27.53       27.46       27.38       27.29       27.20       27.09       26.98       26.86    
        26.72       26.57       26.41       26.24       26.05       25.84       25.62       25.39       25.20       25.10    
  30    27.94       27.94       27.93       27.91       27.89       27.87       27.84       27.80       27.76       27.71    
        27.66       27.60       27.53       27.46       27.38       27.29       27.20       27.09       26.98       26.86    
        26.72       26.57       26.41       26.24       26.05       25.84       25.62       25.39       25.20       25.10    

 HEAD WILL BE SAVED ON UNIT 1017 AT END OF TIME STEP    1, STRESS PERIOD   25



         TIME SUMMARY AT END OF TIME STEP    1 IN STRESS PERIOD   25
                    SECONDS     MINUTES      HOURS       DAYS        YEARS
                    -----------------------------------------------------------
   TIME STEP LENGTH 2.59200E+05  4320.0      72.000      3.0000     8.21355E-03
 STRESS PERIOD TIME 2.59200E+05  4320.0      72.000      3.0000     8.21355E-03
         TOTAL TIME 5.99616E+07 9.99360E+05  16656.      694.00      1.9001    
 UBDSV1 SAVING           STO-SS ON UNIT   1016 AT TIME STEP      2, STRESS PERIOD     25
 UBDSV1 SAVING           STO-SY ON UNIT   1016 AT TIME STEP      2, STRESS PERIOD     25
 UBDSV1 SAVING     FLOW-JA-FACE ON UNIT   1016 AT TIME STEP      2, STRESS PERIOD     25
 UBDSV06 SAVING              RCH IN MODEL TEST_TRANS       PACKAGE TEST_TRANS      CONNECTED TO MODEL TEST_TRANS       PACKAGE RCHA             ON UNIT   1016 AT TIME STEP      2, STRESS PERIOD     25
 UBDSV06 SAVING              CHD IN MODEL TEST_TRANS       PACKAGE TEST_TRANS      CONNECTED TO MODEL TEST_TRANS       PACKAGE CHD              ON UNIT   1016 AT TIME STEP      2, STRESS PERIOD     25

 HEAD WILL BE SAVED ON UNIT 1017 AT END OF TIME STEP    2, STRESS PERIOD   25
 UBDSV1 SAVING           STO-SS ON UNIT   1016 AT TIME STEP      3, STRESS PERIOD     25
 UBDSV1 SAVING           STO-SY ON UNIT   1016 AT TIME STEP      3, STRESS PERIOD     25
 UBDSV1 SAVING     FLOW-JA-FACE ON UNIT   1016 AT TIME STEP      3, STRESS PERIOD     25
 UBDSV06 SAVING              RCH IN MODEL TEST_TRANS       PACKAGE TEST_TRANS      CONNECTED TO MODEL TEST_TRANS       PACKAGE RCHA             ON UNIT   1016 AT TIME STEP      3, STRESS PERIOD     25
 UBDSV06 SAVING              CHD IN MODEL TEST_TRANS       PACKAGE TEST_TRANS      CONNECTED TO MODEL TEST_TRANS       PACKAGE CHD              ON UNIT   1016 AT TIME STEP      3, STRESS PERIOD     25

 HEAD WILL BE SAVED ON UNIT 1017 AT END OF TIME STEP    3, STRESS PERIOD   25
 UBDSV1 SAVING           STO-SS ON UNIT   1016 AT TIME STEP      4, STRESS PERIOD     25
 UBDSV1 SAVING           STO-SY ON UNIT   1016 AT TIME STEP      4, STRESS PERIOD     25
 UBDSV1 SAVING     FLOW-JA-FACE ON UNIT   1016 AT TIME STEP      4, STRESS PERIOD     25
 UBDSV06 SAVING              RCH IN MODEL TEST_TRANS       PACKAGE TEST_TRANS      CONNECTED TO MODEL TEST_TRANS       PACKAGE RCHA             ON UNIT   1016 AT TIME STEP      4, STRESS PERIOD     25
 UBDSV06 SAVING              CHD IN MODEL TEST_TRANS       PACKAGE TEST_TRANS      CONNECTED TO MODEL TEST_TRANS       PACKAGE CHD              ON UNIT   1016 AT TIME STEP      4, STRESS PERIOD     25

 HEAD WILL BE SAVED ON UNIT 1017 AT END OF TIME STEP    4, STRESS PERIOD   25
 UBDSV1 SAVING           STO-SS ON UNIT   1016 AT TIME STEP      5, STRESS PERIOD     25
 UBDSV1 SAVING           STO-SY ON UNIT   1016 AT TIME STEP      5, STRESS PERIOD     25
 UBDSV1 SAVING     FLOW-JA-FACE ON UNIT   1016 AT TIME STEP      5, STRESS PERIOD     25
 UBDSV06 SAVING              RCH IN MODEL TEST_TRANS       PACKAGE TEST_TRANS      CONNECTED TO MODEL TEST_TRANS       PACKAGE RCHA             ON UNIT   1016 AT TIME STEP      5, STRESS PERIOD     25
 UBDSV06 SAVING              CHD IN MODEL TEST_TRANS       PACKAGE TEST_TRANS      CONNECTED TO MODEL TEST_TRANS       PACKAGE CHD              ON UNIT   1016 AT TIME STEP      5, STRESS PERIOD     25

 HEAD WILL BE SAVED ON UNIT 1017 AT END OF TIME STEP    5, STRESS PERIOD   25
 UBDSV1 SAVING           STO-SS ON UNIT   1016 AT TIME STEP      6, STRESS PERIOD     25
 UBDSV1 SAVING           STO-SY ON UNIT   1016 AT TIME STEP      6, STRESS PERIOD     25
 UBDSV1 SAVING     FLOW-JA-FACE ON UNIT   1016 AT TIME STEP      6, STRESS PERIOD     25
 UBDSV06 SAVING              RCH IN MODEL TEST_TRANS       PACKAGE TEST_TRANS      CONNECTED TO MODEL TEST_TRANS       PACKAGE RCHA             ON UNIT   1016 AT TIME STEP      6, STRESS PERIOD     25
 UBDSV06 SAVING              CHD IN MODEL TEST_TRANS       PACKAGE TEST_TRANS      CONNECTED TO MODEL TEST_TRANS       PACKAGE CHD              ON UNIT   1016 AT TIME STEP      6, STRESS PERIOD     25

 HEAD WILL BE SAVED ON UNIT 1017 AT END OF TIME STEP    6, STRESS PERIOD   25
 UBDSV1 SAVING           STO-SS ON UNIT   1016 AT TIME STEP      7, STRESS PERIOD     25
 UBDSV1 SAVING           STO-SY ON UNIT   1016 AT TIME STEP      7, STRESS PERIOD     25
 UBDSV1 SAVING     FLOW-JA-FACE ON UNIT   1016 AT TIME STEP      7, STRESS PERIOD     25
 UBDSV06 SAVING              RCH IN MODEL TEST_TRANS       PACKAGE TEST_TRANS      CONNECTED TO MODEL TEST_TRANS       PACKAGE RCHA             ON UNIT   1016 AT TIME STEP      7, STRESS PERIOD     25
 UBDSV06 SAVING              CHD IN MODEL TEST_TRANS       PACKAGE TEST_TRANS      CONNECTED TO MODEL TEST_TRANS       PACKAGE CHD              ON UNIT   1016 AT TIME STEP      7, STRESS PERIOD     25

 HEAD WILL BE SAVED ON UNIT 1017 AT END OF TIME STEP    7, STRESS PERIOD   25
 UBDSV1 SAVING           STO-SS ON UNIT   1016 AT TIME STEP      8, STRESS PERIOD     25
 UBDSV1 SAVING           STO-SY ON UNIT   1016 AT TIME STEP      8, STRESS PERIOD     25
 UBDSV1 SAVING     FLOW-JA-FACE ON UNIT   1016 AT TIME STEP      8, STRESS PERIOD     25
 UBDSV06 SAVING              RCH IN MODEL TEST_TRANS       PACKAGE TEST_TRANS      CONNECTED TO MODEL TEST_TRANS       PACKAGE RCHA             ON UNIT   1016 AT TIME STEP      8, STRESS PERIOD     25
 UBDSV06 SAVING              CHD IN MODEL TEST_TRANS       PACKAGE TEST_TRANS      CONNECTED TO MODEL TEST_TRANS       PACKAGE CHD              ON UNIT   1016 AT TIME STEP      8, STRESS PERIOD     25

 HEAD WILL BE SAVED ON UNIT 1017 AT END OF TIME STEP    8, STRESS PERIOD   25
 UBDSV1 SAVING           STO-SS ON UNIT   1016 AT TIME STEP      9, STRESS PERIOD     25
 UBDSV1 SAVING           STO-SY ON UNIT   1016 AT TIME STEP      9, STRESS PERIOD     25
 UBDSV1 SAVING     FLOW-JA-FACE ON UNIT   1016 AT TIME STEP      9, STRESS PERIOD     25
 UBDSV06 SAVING              RCH IN MODEL TEST_TRANS       PACKAGE TEST_TRANS      CONNECTED TO MODEL TEST_TRANS       PACKAGE RCHA             ON UNIT   1016 AT TIME STEP      9, STRESS PERIOD     25
 UBDSV06 SAVING              CHD IN MODEL TEST_TRANS       PACKAGE TEST_TRANS      CONNECTED TO MODEL TEST_TRANS       PACKAGE CHD              ON UNIT   1016 AT TIME STEP      9, STRESS PERIOD     25

 HEAD WILL BE SAVED ON UNIT 1017 AT END OF TIME STEP    9, STRESS PERIOD   25
 UBDSV1 SAVING           STO-SS ON UNIT   1016 AT TIME STEP     10, STRESS PERIOD     25
 UBDSV1 SAVING           STO-SY ON UNIT   1016 AT TIME STEP     10, STRESS PERIOD     25
 UBDSV1 SAVING     FLOW-JA-FACE ON UNIT   1016 AT TIME STEP     10, STRESS PERIOD     25
 UBDSV06 SAVING              RCH IN MODEL TEST_TRANS       PACKAGE TEST_TRANS      CONNECTED TO MODEL TEST_TRANS       PACKAGE RCHA             ON UNIT   1016 AT TIME STEP     10, STRESS PERIOD     25
 UBDSV06 SAVING              CHD IN MODEL TEST_TRANS       PACKAGE TEST_TRANS      CONNECTED TO MODEL TEST_TRANS       PACKAGE CHD              ON UNIT   1016 AT TIME STEP     10, STRESS PERIOD     25
1
  HEAD IN LAYER   1 AT END OF TIME STEP  10 IN STRESS PERIOD   25
  ---------------------------------------------------------------------------

            1           2           3           4           5           6           7           8           9          10
           11          12          13          14          15          16          17          18          19          20
           21          22          23          24          25          26          27          28          29          30
 ........................................................................................................................
   1    28.02       28.02       28.01       27.99       27.97       27.94       27.91       27.88       27.84       27.79    
        27.74       27.68       27.62       27.55       27.47       27.39       27.30       27.20       27.10       26.99    
        26.87       26.73       26.59       26.44       26.27       26.09       25.89       25.66       25.40       25.10    
   2    28.02       28.02       28.01       27.99       27.97       27.94       27.91       27.88       27.84       27.79    
        27.74       27.68       27.62       27.55       27.47       27.39       27.30       27.20       27.10       26.99    
        26.87       26.73       26.59       26.44       26.27       26.09       25.89       25.66       25.40       25.10    
   3    28.02       28.02       28.01       27.99       27.97       27.94       27.91       27.88       27.84       27.79    
        27.74       27.68       27.62       27.55       27.47       27.39       27.30       27.20       27.10       26.99    
        26.87       26.73       26.59       26.44       26.27       26.09       25.89       25.66       25.40       25.10    
   4    28.02       28.02       28.01       27.99       27.97       27.94       27.91       27.88       27.84       27.79    
        27.74       27.68       27.62       27.55       27.47       27.39       27.30       27.20       27.10       26.99    
        26.87       26.73       26.59       26.44       26.27       26.09       25.89       25.66       25.40       25.10    
   5    28.02       28.02       28.01       27.99       27.97       27.94       27.91       27.88       27.84       27.79    
        27.74       27.68       27.62       27.55       27.47       27.39       27.30       27.20       27.10       26.99    
        26.87       26.73       26.59       26.44       26.27       26.09       25.89       25.66       25.40       25.10    
   6    28.02       28.02       28.01       27.99       27.97       27.94       27.91       27.88       27.84       27.79    
        27.74       27.68       27.62       27.55       27.47       27.39       27.30       27.20       27.10       26.99    
        26.87       26.73       26.59       26.44       26.27       26.09       25.89       25.66       25.40       25.10    
   7    28.02       28.02       28.01       27.99       27.97       27.94       27.91       27.88       27.84       27.79    
        27.74       27.68       27.62       27.55       27.47       27.39       27.30       27.20       27.10       26.99    
        26.87       26.73       26.59       26.44       26.27       26.09       25.89       25.66       25.40       25.10    
   8    28.02       28.02       28.01       27.99       27.97       27.94       27.91       27.88       27.84       27.79    
        27.74       27.68       27.62       27.55       27.47       27.39       27.30       27.20       27.10       26.99    
        26.87       26.73       26.59       26.44       26.27       26.09       25.89       25.66       25.40       25.10    
   9    28.02       28.02       28.01       27.99       27.97       27.94       27.91       27.88       27.84       27.79    
        27.74       27.68       27.62       27.55       27.47       27.39       27.30       27.20       27.10       26.99    
        26.87       26.73       26.59       26.44       26.27       26.09       25.89       25.66       25.40       25.10    
  10    28.02       28.02       28.01       27.99       27.97       27.94       27.91       27.88       27.84       27.79    
        27.74       27.68       27.62       27.55       27.47       27.39       27.30       27.20       27.10       26.99    
        26.87       26.73       26.59       26.44       26.27       26.09       25.89       25.66       25.40       25.10    
  11    28.02       28.02       28.01       27.99       27.97       27.94       27.91       27.88       27.84       27.79    
        27.74       27.68       27.62       27.55       27.47       27.39       27.30       27.20       27.10       26.99    
        26.87       26.73       26.59       26.44       26.27       26.09       25.89       25.66       25.40       25.10    
  12    28.02       28.02       28.01       27.99       27.97       27.94       27.91       27.88       27.84       27.79    
        27.74       27.68       27.62       27.55       27.47       27.39       27.30       27.20       27.10       26.99    
        26.87       26.73       26.59       26.44       26.27       26.09       25.89       25.66       25.40       25.10    
  13    28.02       28.02       28.01       27.99       27.97       27.94       27.91       27.88       27.84       27.79    
        27.74       27.68       27.62       27.55       27.47       27.39       27.30       27.20       27.10       26.99    
        26.87       26.73       26.59       26.44       26.27       26.09       25.89       25.66       25.40       25.10    
  14    28.02       28.02       28.01       27.99       27.97       27.94       27.91       27.88       27.84       27.79    
        27.74       27.68       27.62       27.55       27.47       27.39       27.30       27.20       27.10       26.99    
        26.87       26.73       26.59       26.44       26.27       26.09       25.89       25.66       25.40       25.10    
  15    28.02       28.02       28.01       27.99       27.97       27.94       27.91       27.88       27.84       27.79    
        27.74       27.68       27.62       27.55       27.47       27.39       27.30       27.20       27.10       26.99    
        26.87       26.73       26.59       26.44       26.27       26.09       25.89       25.66       25.40       25.10    
  16    28.02       28.02       28.01       27.99       27.97       27.94       27.91       27.88       27.84       27.79    
        27.74       27.68       27.62       27.55       27.47       27.39       27.30       27.20       27.10       26.99    
        26.87       26.73       26.59       26.44       26.27       26.09       25.89       25.66       25.40       25.10    
  17    28.02       28.02       28.01       27.99       27.97       27.94       27.91       27.88       27.84       27.79    
        27.74       27.68       27.62       27.55       27.47       27.39       27.30       27.20       27.10       26.99    
        26.87       26.73       26.59       26.44       26.27       26.09       25.89       25.66       25.40       25.10    
  18    28.02       28.02       28.01       27.99       27.97       27.94       27.91       27.88       27.84       27.79    
        27.74       27.68       27.62       27.55       27.47       27.39       27.30       27.20       27.10       26.99    
        26.87       26.73       26.59       26.44       26.27       26.09       25.89       25.66       25.40       25.10    
  19    28.02       28.02       28.01       27.99       27.97       27.94       27.91       27.88       27.84       27.79    
        27.74       27.68       27.62       27.55       27.47       27.39       27.30       27.20       27.10       26.99    
        26.87       26.73       26.59       26.44       26.27       26.09       25.89       25.66       25.40       25.10    
  20    28.02       28.02       28.01       27.99       27.97       27.94       27.91       27.88       27.84       27.79    
        27.74       27.68       27.62       27.55       27.47       27.39       27.30       27.20       27.10       26.99    
        26.87       26.73       26.59       26.44       26.27       26.09       25.89       25.66       25.40       25.10    
  21    28.02       28.02       28.01       27.99       27.97       27.94       27.91       27.88       27.84       27.79    
        27.74       27.68       27.62       27.55       27.47       27.39       27.30       27.20       27.10       26.99    
        26.87       26.73       26.59       26.44       26.27       26.09       25.89       25.66       25.40       25.10    
  22    28.02       28.02       28.01       27.99       27.97       27.94       27.91       27.88       27.84       27.79    
        27.74       27.68       27.62       27.55       27.47       27.39       27.30       27.20       27.10       26.99    
        26.87       26.73       26.59       26.44       26.27       26.09       25.89       25.66       25.40       25.10    
  23    28.02       28.02       28.01       27.99       27.97       27.94       27.91       27.88       27.84       27.79    
        27.74       27.68       27.62       27.55       27.47       27.39       27.30       27.20       27.10       26.99    
        26.87       26.73       26.59       26.44       26.27       26.09       25.89       25.66       25.40       25.10    
  24    28.02       28.02       28.01       27.99       27.97       27.94       27.91       27.88       27.84       27.79    
        27.74       27.68       27.62       27.55       27.47       27.39       27.30       27.20       27.10       26.99    
        26.87       26.73       26.59       26.44       26.27       26.09       25.89       25.66       25.40       25.10    
  25    28.02       28.02       28.01       27.99       27.97       27.94       27.91       27.88       27.84       27.79    
        27.74       27.68       27.62       27.55       27.47       27.39       27.30       27.20       27.10       26.99    
        26.87       26.73       26.59       26.44       26.27       26.09       25.89       25.66       25.40       25.10    
  26    28.02       28.02       28.01       27.99       27.97       27.94       27.91       27.88       27.84       27.79    
        27.74       27.68       27.62       27.55       27.47       27.39       27.30       27.20       27.10       26.99    
        26.87       26.73       26.59       26.44       26.27       26.09       25.89       25.66       25.40       25.10    
  27    28.02       28.02       28.01       27.99       27.97       27.94       27.91       27.88       27.84       27.79    
        27.74       27.68       27.62       27.55       27.47       27.39       27.30       27.20       27.10       26.99    
        26.87       26.73       26.59       26.44       26.27       26.09       25.89       25.66       25.40       25.10    
  28    28.02       28.02       28.01       27.99       27.97       27.94       27.91       27.88       27.84       27.79    
        27.74       27.68       27.62       27.55       27.47       27.39       27.30       27.20       27.10       26.99    
        26.87       26.73       26.59       26.44       26.27       26.09       25.89       25.66       25.40       25.10    
  29    28.02       28.02       28.01       27.99       27.97       27.94       27.91       27.88       27.84       27.79    
        27.74       27.68       27.62       27.55       27.47       27.39       27.30       27.20       27.10       26.99    
        26.87       26.73       26.59       26.44       26.27       26.09       25.89       25.66       25.40       25.10    
  30    28.02       28.02       28.01       27.99       27.97       27.94       27.91       27.88       27.84       27.79    
        27.74       27.68       27.62       27.55       27.47       27.39       27.30       27.20       27.10       26.99    
        26.87       26.73       26.59       26.44       26.27       26.09       25.89       25.66       25.40       25.10    

 HEAD WILL BE SAVED ON UNIT 1017 AT END OF TIME STEP   10, STRESS PERIOD   25


  VOLUME BUDGET FOR ENTIRE MODEL AT END OF TIME STEP   10, STRESS PERIOD  25
  ---------------------------------------------------------------------------------------------------

     CUMULATIVE VOLUME      L**3       RATES FOR THIS TIME STEP      L**3/T          PACKAGE NAME    
     ------------------                 ------------------------                     ----------------

           IN:                                      IN:
           ---                                      ---
              STO-SS =          40.3449                STO-SS =           0.0000     STORAGE         
              STO-SY =       25550.1160                STO-SY =           0.0000     STORAGE         
                 RCH =      119654.8506                   RCH =         238.3565     RCHA            
                 CHD =           0.0000                   CHD =           0.0000     CHD             

            TOTAL IN =      145245.3115              TOTAL IN =         238.3565

          OUT:                                     OUT:
          ----                                     ----
              STO-SS =          26.1813                STO-SS =       9.5870E-02     STORAGE         
              STO-SY =       16818.0343                STO-SY =          61.0740     STORAGE         
                 RCH =           0.0000                   RCH =           0.0000     RCHA            
                 CHD =      128400.4946                   CHD =         177.1945     CHD             

           TOTAL OUT =      145244.7102             TOTAL OUT =         238.3644

            IN - OUT =           0.6013              IN - OUT =      -7.8901E-03

 PERCENT DISCREPANCY =           0.00     PERCENT DISCREPANCY =          -0.00




         TIME SUMMARY AT END OF TIME STEP   10 IN STRESS PERIOD   25
                    SECONDS     MINUTES      HOURS       DAYS        YEARS
                    -----------------------------------------------------------
   TIME STEP LENGTH 2.59200E+05  4320.0      72.000      3.0000     8.21355E-03
 STRESS PERIOD TIME 2.59200E+06  43200.      720.00      30.000     8.21355E-02
         TOTAL TIME 6.22944E+07 1.03824E+06  17304.      721.00      1.9740    

 OUTPUT CONTROL FOR STRESS PERIOD 26 IS REPEATED USING SETTINGS FROM A PREVIOUS STRESS PERIOD.


 STRESS PERIOD 26 IS TRANSIENT


                 RECHARGE =  0.3287670E-02
 UBDSV1 SAVING           STO-SS ON UNIT   1016 AT TIME STEP      1, STRESS PERIOD     26
 UBDSV1 SAVING           STO-SY ON UNIT   1016 AT TIME STEP      1, STRESS PERIOD     26
 UBDSV1 SAVING     FLOW-JA-FACE ON UNIT   1016 AT TIME STEP      1, STRESS PERIOD     26
 UBDSV06 SAVING              RCH IN MODEL TEST_TRANS       PACKAGE TEST_TRANS      CONNECTED TO MODEL TEST_TRANS       PACKAGE RCHA             ON UNIT   1016 AT TIME STEP      1, STRESS PERIOD     26
 UBDSV06 SAVING              CHD IN MODEL TEST_TRANS       PACKAGE TEST_TRANS      CONNECTED TO MODEL TEST_TRANS       PACKAGE CHD              ON UNIT   1016 AT TIME STEP      1, STRESS PERIOD     26
1
  HEAD IN LAYER   1 AT END OF TIME STEP   1 IN STRESS PERIOD   26
  ---------------------------------------------------------------------------

            1           2           3           4           5           6           7           8           9          10
           11          12          13          14          15          16          17          18          19          20
           21          22          23          24          25          26          27          28          29          30
 ........................................................................................................................
   1    28.04       28.03       28.02       28.01       27.99       27.96       27.93       27.90       27.86       27.81    
        27.76       27.70       27.64       27.57       27.49       27.41       27.32       27.22       27.12       27.01    
        26.89       26.76       26.61       26.46       26.29       26.11       25.91       25.68       25.42       25.12    
   2    28.04       28.03       28.02       28.01       27.99       27.96       27.93       27.90       27.86       27.81    
        27.76       27.70       27.64       27.57       27.49       27.41       27.32       27.22       27.12       27.01    
        26.89       26.76       26.61       26.46       26.29       26.11       25.91       25.68       25.42       25.12    
   3    28.04       28.03       28.02       28.01       27.99       27.96       27.93       27.90       27.86       27.81    
        27.76       27.70       27.64       27.57       27.49       27.41       27.32       27.22       27.12       27.01    
        26.89       26.76       26.61       26.46       26.29       26.11       25.91       25.68       25.42       25.12    
   4    28.04       28.03       28.02       28.01       27.99       27.96       27.93       27.90       27.86       27.81    
        27.76       27.70       27.64       27.57       27.49       27.41       27.32       27.22       27.12       27.01    
        26.89       26.76       26.61       26.46       26.29       26.11       25.91       25.68       25.42       25.12    
   5    28.04       28.03       28.02       28.01       27.99       27.96       27.93       27.90       27.86       27.81    
        27.76       27.70       27.64       27.57       27.49       27.41       27.32       27.22       27.12       27.01    
        26.89       26.76       26.61       26.46       26.29       26.11       25.91       25.68       25.42       25.12    
   6    28.04       28.03       28.02       28.01       27.99       27.96       27.93       27.90       27.86       27.81    
        27.76       27.70       27.64       27.57       27.49       27.41       27.32       27.22       27.12       27.01    
        26.89       26.76       26.61       26.46       26.29       26.11       25.91       25.68       25.42       25.12    
   7    28.04       28.03       28.02       28.01       27.99       27.96       27.93       27.90       27.86       27.81    
        27.76       27.70       27.64       27.57       27.49       27.41       27.32       27.22       27.12       27.01    
        26.89       26.76       26.61       26.46       26.29       26.11       25.91       25.68       25.42       25.12    
   8    28.04       28.03       28.02       28.01       27.99       27.96       27.93       27.90       27.86       27.81    
        27.76       27.70       27.64       27.57       27.49       27.41       27.32       27.22       27.12       27.01    
        26.89       26.76       26.61       26.46       26.29       26.11       25.91       25.68       25.42       25.12    
   9    28.04       28.03       28.02       28.01       27.99       27.96       27.93       27.90       27.86       27.81    
        27.76       27.70       27.64       27.57       27.49       27.41       27.32       27.22       27.12       27.01    
        26.89       26.76       26.61       26.46       26.29       26.11       25.91       25.68       25.42       25.12    
  10    28.04       28.03       28.02       28.01       27.99       27.96       27.93       27.90       27.86       27.81    
        27.76       27.70       27.64       27.57       27.49       27.41       27.32       27.22       27.12       27.01    
        26.89       26.76       26.61       26.46       26.29       26.11       25.91       25.68       25.42       25.12    
  11    28.04       28.03       28.02       28.01       27.99       27.96       27.93       27.90       27.86       27.81    
        27.76       27.70       27.64       27.57       27.49       27.41       27.32       27.22       27.12       27.01    
        26.89       26.76       26.61       26.46       26.29       26.11       25.91       25.68       25.42       25.12    
  12    28.04       28.03       28.02       28.01       27.99       27.96       27.93       27.90       27.86       27.81    
        27.76       27.70       27.64       27.57       27.49       27.41       27.32       27.22       27.12       27.01    
        26.89       26.76       26.61       26.46       26.29       26.11       25.91       25.68       25.42       25.12    
  13    28.04       28.03       28.02       28.01       27.99       27.96       27.93       27.90       27.86       27.81    
        27.76       27.70       27.64       27.57       27.49       27.41       27.32       27.22       27.12       27.01    
        26.89       26.76       26.61       26.46       26.29       26.11       25.91       25.68       25.42       25.12    
  14    28.04       28.03       28.02       28.01       27.99       27.96       27.93       27.90       27.86       27.81    
        27.76       27.70       27.64       27.57       27.49       27.41       27.32       27.22       27.12       27.01    
        26.89       26.76       26.61       26.46       26.29       26.11       25.91       25.68       25.42       25.12    
  15    28.04       28.03       28.02       28.01       27.99       27.96       27.93       27.90       27.86       27.81    
        27.76       27.70       27.64       27.57       27.49       27.41       27.32       27.22       27.12       27.01    
        26.89       26.76       26.61       26.46       26.29       26.11       25.91       25.68       25.42       25.12    
  16    28.04       28.03       28.02       28.01       27.99       27.96       27.93       27.90       27.86       27.81    
        27.76       27.70       27.64       27.57       27.49       27.41       27.32       27.22       27.12       27.01    
        26.89       26.76       26.61       26.46       26.29       26.11       25.91       25.68       25.42       25.12    
  17    28.04       28.03       28.02       28.01       27.99       27.96       27.93       27.90       27.86       27.81    
        27.76       27.70       27.64       27.57       27.49       27.41       27.32       27.22       27.12       27.01    
        26.89       26.76       26.61       26.46       26.29       26.11       25.91       25.68       25.42       25.12    
  18    28.04       28.03       28.02       28.01       27.99       27.96       27.93       27.90       27.86       27.81    
        27.76       27.70       27.64       27.57       27.49       27.41       27.32       27.22       27.12       27.01    
        26.89       26.76       26.61       26.46       26.29       26.11       25.91       25.68       25.42       25.12    
  19    28.04       28.03       28.02       28.01       27.99       27.96       27.93       27.90       27.86       27.81    
        27.76       27.70       27.64       27.57       27.49       27.41       27.32       27.22       27.12       27.01    
        26.89       26.76       26.61       26.46       26.29       26.11       25.91       25.68       25.42       25.12    
  20    28.04       28.03       28.02       28.01       27.99       27.96       27.93       27.90       27.86       27.81    
        27.76       27.70       27.64       27.57       27.49       27.41       27.32       27.22       27.12       27.01    
        26.89       26.76       26.61       26.46       26.29       26.11       25.91       25.68       25.42       25.12    
  21    28.04       28.03       28.02       28.01       27.99       27.96       27.93       27.90       27.86       27.81    
        27.76       27.70       27.64       27.57       27.49       27.41       27.32       27.22       27.12       27.01    
        26.89       26.76       26.61       26.46       26.29       26.11       25.91       25.68       25.42       25.12    
  22    28.04       28.03       28.02       28.01       27.99       27.96       27.93       27.90       27.86       27.81    
        27.76       27.70       27.64       27.57       27.49       27.41       27.32       27.22       27.12       27.01    
        26.89       26.76       26.61       26.46       26.29       26.11       25.91       25.68       25.42       25.12    
  23    28.04       28.03       28.02       28.01       27.99       27.96       27.93       27.90       27.86       27.81    
        27.76       27.70       27.64       27.57       27.49       27.41       27.32       27.22       27.12       27.01    
        26.89       26.76       26.61       26.46       26.29       26.11       25.91       25.68       25.42       25.12    
  24    28.04       28.03       28.02       28.01       27.99       27.96       27.93       27.90       27.86       27.81    
        27.76       27.70       27.64       27.57       27.49       27.41       27.32       27.22       27.12       27.01    
        26.89       26.76       26.61       26.46       26.29       26.11       25.91       25.68       25.42       25.12    
  25    28.04       28.03       28.02       28.01       27.99       27.96       27.93       27.90       27.86       27.81    
        27.76       27.70       27.64       27.57       27.49       27.41       27.32       27.22       27.12       27.01    
        26.89       26.76       26.61       26.46       26.29       26.11       25.91       25.68       25.42       25.12    
  26    28.04       28.03       28.02       28.01       27.99       27.96       27.93       27.90       27.86       27.81    
        27.76       27.70       27.64       27.57       27.49       27.41       27.32       27.22       27.12       27.01    
        26.89       26.76       26.61       26.46       26.29       26.11       25.91       25.68       25.42       25.12    
  27    28.04       28.03       28.02       28.01       27.99       27.96       27.93       27.90       27.86       27.81    
        27.76       27.70       27.64       27.57       27.49       27.41       27.32       27.22       27.12       27.01    
        26.89       26.76       26.61       26.46       26.29       26.11       25.91       25.68       25.42       25.12    
  28    28.04       28.03       28.02       28.01       27.99       27.96       27.93       27.90       27.86       27.81    
        27.76       27.70       27.64       27.57       27.49       27.41       27.32       27.22       27.12       27.01    
        26.89       26.76       26.61       26.46       26.29       26.11       25.91       25.68       25.42       25.12    
  29    28.04       28.03       28.02       28.01       27.99       27.96       27.93       27.90       27.86       27.81    
        27.76       27.70       27.64       27.57       27.49       27.41       27.32       27.22       27.12       27.01    
        26.89       26.76       26.61       26.46       26.29       26.11       25.91       25.68       25.42       25.12    
  30    28.04       28.03       28.02       28.01       27.99       27.96       27.93       27.90       27.86       27.81    
        27.76       27.70       27.64       27.57       27.49       27.41       27.32       27.22       27.12       27.01    
        26.89       26.76       26.61       26.46       26.29       26.11       25.91       25.68       25.42       25.12    

 HEAD WILL BE SAVED ON UNIT 1017 AT END OF TIME STEP    1, STRESS PERIOD   26



         TIME SUMMARY AT END OF TIME STEP    1 IN STRESS PERIOD   26
                    SECONDS     MINUTES      HOURS       DAYS        YEARS
                    -----------------------------------------------------------
   TIME STEP LENGTH 2.59200E+05  4320.0      72.000      3.0000     8.21355E-03
 STRESS PERIOD TIME 2.59200E+05  4320.0      72.000      3.0000     8.21355E-03
         TOTAL TIME 6.25536E+07 1.04256E+06  17376.      724.00      1.9822    
 UBDSV1 SAVING           STO-SS ON UNIT   1016 AT TIME STEP      2, STRESS PERIOD     26
 UBDSV1 SAVING           STO-SY ON UNIT   1016 AT TIME STEP      2, STRESS PERIOD     26
 UBDSV1 SAVING     FLOW-JA-FACE ON UNIT   1016 AT TIME STEP      2, STRESS PERIOD     26
 UBDSV06 SAVING              RCH IN MODEL TEST_TRANS       PACKAGE TEST_TRANS      CONNECTED TO MODEL TEST_TRANS       PACKAGE RCHA             ON UNIT   1016 AT TIME STEP      2, STRESS PERIOD     26
 UBDSV06 SAVING              CHD IN MODEL TEST_TRANS       PACKAGE TEST_TRANS      CONNECTED TO MODEL TEST_TRANS       PACKAGE CHD              ON UNIT   1016 AT TIME STEP      2, STRESS PERIOD     26

 HEAD WILL BE SAVED ON UNIT 1017 AT END OF TIME STEP    2, STRESS PERIOD   26
 UBDSV1 SAVING           STO-SS ON UNIT   1016 AT TIME STEP      3, STRESS PERIOD     26
 UBDSV1 SAVING           STO-SY ON UNIT   1016 AT TIME STEP      3, STRESS PERIOD     26
 UBDSV1 SAVING     FLOW-JA-FACE ON UNIT   1016 AT TIME STEP      3, STRESS PERIOD     26
 UBDSV06 SAVING              RCH IN MODEL TEST_TRANS       PACKAGE TEST_TRANS      CONNECTED TO MODEL TEST_TRANS       PACKAGE RCHA             ON UNIT   1016 AT TIME STEP      3, STRESS PERIOD     26
 UBDSV06 SAVING              CHD IN MODEL TEST_TRANS       PACKAGE TEST_TRANS      CONNECTED TO MODEL TEST_TRANS       PACKAGE CHD              ON UNIT   1016 AT TIME STEP      3, STRESS PERIOD     26

 HEAD WILL BE SAVED ON UNIT 1017 AT END OF TIME STEP    3, STRESS PERIOD   26
 UBDSV1 SAVING           STO-SS ON UNIT   1016 AT TIME STEP      4, STRESS PERIOD     26
 UBDSV1 SAVING           STO-SY ON UNIT   1016 AT TIME STEP      4, STRESS PERIOD     26
 UBDSV1 SAVING     FLOW-JA-FACE ON UNIT   1016 AT TIME STEP      4, STRESS PERIOD     26
 UBDSV06 SAVING              RCH IN MODEL TEST_TRANS       PACKAGE TEST_TRANS      CONNECTED TO MODEL TEST_TRANS       PACKAGE RCHA             ON UNIT   1016 AT TIME STEP      4, STRESS PERIOD     26
 UBDSV06 SAVING              CHD IN MODEL TEST_TRANS       PACKAGE TEST_TRANS      CONNECTED TO MODEL TEST_TRANS       PACKAGE CHD              ON UNIT   1016 AT TIME STEP      4, STRESS PERIOD     26

 HEAD WILL BE SAVED ON UNIT 1017 AT END OF TIME STEP    4, STRESS PERIOD   26
 UBDSV1 SAVING           STO-SS ON UNIT   1016 AT TIME STEP      5, STRESS PERIOD     26
 UBDSV1 SAVING           STO-SY ON UNIT   1016 AT TIME STEP      5, STRESS PERIOD     26
 UBDSV1 SAVING     FLOW-JA-FACE ON UNIT   1016 AT TIME STEP      5, STRESS PERIOD     26
 UBDSV06 SAVING              RCH IN MODEL TEST_TRANS       PACKAGE TEST_TRANS      CONNECTED TO MODEL TEST_TRANS       PACKAGE RCHA             ON UNIT   1016 AT TIME STEP      5, STRESS PERIOD     26
 UBDSV06 SAVING              CHD IN MODEL TEST_TRANS       PACKAGE TEST_TRANS      CONNECTED TO MODEL TEST_TRANS       PACKAGE CHD              ON UNIT   1016 AT TIME STEP      5, STRESS PERIOD     26

 HEAD WILL BE SAVED ON UNIT 1017 AT END OF TIME STEP    5, STRESS PERIOD   26
 UBDSV1 SAVING           STO-SS ON UNIT   1016 AT TIME STEP      6, STRESS PERIOD     26
 UBDSV1 SAVING           STO-SY ON UNIT   1016 AT TIME STEP      6, STRESS PERIOD     26
 UBDSV1 SAVING     FLOW-JA-FACE ON UNIT   1016 AT TIME STEP      6, STRESS PERIOD     26
 UBDSV06 SAVING              RCH IN MODEL TEST_TRANS       PACKAGE TEST_TRANS      CONNECTED TO MODEL TEST_TRANS       PACKAGE RCHA             ON UNIT   1016 AT TIME STEP      6, STRESS PERIOD     26
 UBDSV06 SAVING              CHD IN MODEL TEST_TRANS       PACKAGE TEST_TRANS      CONNECTED TO MODEL TEST_TRANS       PACKAGE CHD              ON UNIT   1016 AT TIME STEP      6, STRESS PERIOD     26

 HEAD WILL BE SAVED ON UNIT 1017 AT END OF TIME STEP    6, STRESS PERIOD   26
 UBDSV1 SAVING           STO-SS ON UNIT   1016 AT TIME STEP      7, STRESS PERIOD     26
 UBDSV1 SAVING           STO-SY ON UNIT   1016 AT TIME STEP      7, STRESS PERIOD     26
 UBDSV1 SAVING     FLOW-JA-FACE ON UNIT   1016 AT TIME STEP      7, STRESS PERIOD     26
 UBDSV06 SAVING              RCH IN MODEL TEST_TRANS       PACKAGE TEST_TRANS      CONNECTED TO MODEL TEST_TRANS       PACKAGE RCHA             ON UNIT   1016 AT TIME STEP      7, STRESS PERIOD     26
 UBDSV06 SAVING              CHD IN MODEL TEST_TRANS       PACKAGE TEST_TRANS      CONNECTED TO MODEL TEST_TRANS       PACKAGE CHD              ON UNIT   1016 AT TIME STEP      7, STRESS PERIOD     26

 HEAD WILL BE SAVED ON UNIT 1017 AT END OF TIME STEP    7, STRESS PERIOD   26
 UBDSV1 SAVING           STO-SS ON UNIT   1016 AT TIME STEP      8, STRESS PERIOD     26
 UBDSV1 SAVING           STO-SY ON UNIT   1016 AT TIME STEP      8, STRESS PERIOD     26
 UBDSV1 SAVING     FLOW-JA-FACE ON UNIT   1016 AT TIME STEP      8, STRESS PERIOD     26
 UBDSV06 SAVING              RCH IN MODEL TEST_TRANS       PACKAGE TEST_TRANS      CONNECTED TO MODEL TEST_TRANS       PACKAGE RCHA             ON UNIT   1016 AT TIME STEP      8, STRESS PERIOD     26
 UBDSV06 SAVING              CHD IN MODEL TEST_TRANS       PACKAGE TEST_TRANS      CONNECTED TO MODEL TEST_TRANS       PACKAGE CHD              ON UNIT   1016 AT TIME STEP      8, STRESS PERIOD     26

 HEAD WILL BE SAVED ON UNIT 1017 AT END OF TIME STEP    8, STRESS PERIOD   26
 UBDSV1 SAVING           STO-SS ON UNIT   1016 AT TIME STEP      9, STRESS PERIOD     26
 UBDSV1 SAVING           STO-SY ON UNIT   1016 AT TIME STEP      9, STRESS PERIOD     26
 UBDSV1 SAVING     FLOW-JA-FACE ON UNIT   1016 AT TIME STEP      9, STRESS PERIOD     26
 UBDSV06 SAVING              RCH IN MODEL TEST_TRANS       PACKAGE TEST_TRANS      CONNECTED TO MODEL TEST_TRANS       PACKAGE RCHA             ON UNIT   1016 AT TIME STEP      9, STRESS PERIOD     26
 UBDSV06 SAVING              CHD IN MODEL TEST_TRANS       PACKAGE TEST_TRANS      CONNECTED TO MODEL TEST_TRANS       PACKAGE CHD              ON UNIT   1016 AT TIME STEP      9, STRESS PERIOD     26

 HEAD WILL BE SAVED ON UNIT 1017 AT END OF TIME STEP    9, STRESS PERIOD   26
 UBDSV1 SAVING           STO-SS ON UNIT   1016 AT TIME STEP     10, STRESS PERIOD     26
 UBDSV1 SAVING           STO-SY ON UNIT   1016 AT TIME STEP     10, STRESS PERIOD     26
 UBDSV1 SAVING     FLOW-JA-FACE ON UNIT   1016 AT TIME STEP     10, STRESS PERIOD     26
 UBDSV06 SAVING              RCH IN MODEL TEST_TRANS       PACKAGE TEST_TRANS      CONNECTED TO MODEL TEST_TRANS       PACKAGE RCHA             ON UNIT   1016 AT TIME STEP     10, STRESS PERIOD     26
 UBDSV06 SAVING              CHD IN MODEL TEST_TRANS       PACKAGE TEST_TRANS      CONNECTED TO MODEL TEST_TRANS       PACKAGE CHD              ON UNIT   1016 AT TIME STEP     10, STRESS PERIOD     26
1
  HEAD IN LAYER   1 AT END OF TIME STEP  10 IN STRESS PERIOD   26
  ---------------------------------------------------------------------------

            1           2           3           4           5           6           7           8           9          10
           11          12          13          14          15          16          17          18          19          20
           21          22          23          24          25          26          27          28          29          30
 ........................................................................................................................
   1    28.19       28.18       28.17       28.16       28.14       28.12       28.09       28.05       28.01       27.97    
        27.91       27.86       27.80       27.73       27.65       27.57       27.48       27.38       27.28       27.16    
        27.04       26.90       26.76       26.60       26.42       26.22       26.00       25.75       25.47       25.12    
   2    28.19       28.18       28.17       28.16       28.14       28.12       28.09       28.05       28.01       27.97    
        27.91       27.86       27.80       27.73       27.65       27.57       27.48       27.38       27.28       27.16    
        27.04       26.90       26.76       26.60       26.42       26.22       26.00       25.75       25.47       25.12    
   3    28.19       28.18       28.17       28.16       28.14       28.12       28.09       28.05       28.01       27.97    
        27.91       27.86       27.80       27.73       27.65       27.57       27.48       27.38       27.28       27.16    
        27.04       26.90       26.76       26.60       26.42       26.22       26.00       25.75       25.47       25.12    
   4    28.19       28.18       28.17       28.16       28.14       28.12       28.09       28.05       28.01       27.97    
        27.91       27.86       27.80       27.73       27.65       27.57       27.48       27.38       27.28       27.16    
        27.04       26.90       26.76       26.60       26.42       26.22       26.00       25.75       25.47       25.12    
   5    28.19       28.18       28.17       28.16       28.14       28.12       28.09       28.05       28.01       27.97    
        27.91       27.86       27.80       27.73       27.65       27.57       27.48       27.38       27.28       27.16    
        27.04       26.90       26.76       26.60       26.42       26.22       26.00       25.75       25.47       25.12    
   6    28.19       28.18       28.17       28.16       28.14       28.12       28.09       28.05       28.01       27.97    
        27.91       27.86       27.80       27.73       27.65       27.57       27.48       27.38       27.28       27.16    
        27.04       26.90       26.76       26.60       26.42       26.22       26.00       25.75       25.47       25.12    
   7    28.19       28.18       28.17       28.16       28.14       28.12       28.09       28.05       28.01       27.97    
        27.91       27.86       27.80       27.73       27.65       27.57       27.48       27.38       27.28       27.16    
        27.04       26.90       26.76       26.60       26.42       26.22       26.00       25.75       25.47       25.12    
   8    28.19       28.18       28.17       28.16       28.14       28.12       28.09       28.05       28.01       27.97    
        27.91       27.86       27.80       27.73       27.65       27.57       27.48       27.38       27.28       27.16    
        27.04       26.90       26.76       26.60       26.42       26.22       26.00       25.75       25.47       25.12    
   9    28.19       28.18       28.17       28.16       28.14       28.12       28.09       28.05       28.01       27.97    
        27.91       27.86       27.80       27.73       27.65       27.57       27.48       27.38       27.28       27.16    
        27.04       26.90       26.76       26.60       26.42       26.22       26.00       25.75       25.47       25.12    
  10    28.19       28.18       28.17       28.16       28.14       28.12       28.09       28.05       28.01       27.97    
        27.91       27.86       27.80       27.73       27.65       27.57       27.48       27.38       27.28       27.16    
        27.04       26.90       26.76       26.60       26.42       26.22       26.00       25.75       25.47       25.12    
  11    28.19       28.18       28.17       28.16       28.14       28.12       28.09       28.05       28.01       27.97    
        27.91       27.86       27.80       27.73       27.65       27.57       27.48       27.38       27.28       27.16    
        27.04       26.90       26.76       26.60       26.42       26.22       26.00       25.75       25.47       25.12    
  12    28.19       28.18       28.17       28.16       28.14       28.12       28.09       28.05       28.01       27.97    
        27.91       27.86       27.80       27.73       27.65       27.57       27.48       27.38       27.28       27.16    
        27.04       26.90       26.76       26.60       26.42       26.22       26.00       25.75       25.47       25.12    
  13    28.19       28.18       28.17       28.16       28.14       28.12       28.09       28.05       28.01       27.97    
        27.91       27.86       27.80       27.73       27.65       27.57       27.48       27.38       27.28       27.16    
        27.04       26.90       26.76       26.60       26.42       26.22       26.00       25.75       25.47       25.12    
  14    28.19       28.18       28.17       28.16       28.14       28.12       28.09       28.05       28.01       27.97    
        27.91       27.86       27.80       27.73       27.65       27.57       27.48       27.38       27.28       27.16    
        27.04       26.90       26.76       26.60       26.42       26.22       26.00       25.75       25.47       25.12    
  15    28.19       28.18       28.17       28.16       28.14       28.12       28.09       28.05       28.01       27.97    
        27.91       27.86       27.80       27.73       27.65       27.57       27.48       27.38       27.28       27.16    
        27.04       26.90       26.76       26.60       26.42       26.22       26.00       25.75       25.47       25.12    
  16    28.19       28.18       28.17       28.16       28.14       28.12       28.09       28.05       28.01       27.97    
        27.91       27.86       27.80       27.73       27.65       27.57       27.48       27.38       27.28       27.16    
        27.04       26.90       26.76       26.60       26.42       26.22       26.00       25.75       25.47       25.12    
  17    28.19       28.18       28.17       28.16       28.14       28.12       28.09       28.05       28.01       27.97    
        27.91       27.86       27.80       27.73       27.65       27.57       27.48       27.38       27.28       27.16    
        27.04       26.90       26.76       26.60       26.42       26.22       26.00       25.75       25.47       25.12    
  18    28.19       28.18       28.17       28.16       28.14       28.12       28.09       28.05       28.01       27.97    
        27.91       27.86       27.80       27.73       27.65       27.57       27.48       27.38       27.28       27.16    
        27.04       26.90       26.76       26.60       26.42       26.22       26.00       25.75       25.47       25.12    
  19    28.19       28.18       28.17       28.16       28.14       28.12       28.09       28.05       28.01       27.97    
        27.91       27.86       27.80       27.73       27.65       27.57       27.48       27.38       27.28       27.16    
        27.04       26.90       26.76       26.60       26.42       26.22       26.00       25.75       25.47       25.12    
  20    28.19       28.18       28.17       28.16       28.14       28.12       28.09       28.05       28.01       27.97    
        27.91       27.86       27.80       27.73       27.65       27.57       27.48       27.38       27.28       27.16    
        27.04       26.90       26.76       26.60       26.42       26.22       26.00       25.75       25.47       25.12    
  21    28.19       28.18       28.17       28.16       28.14       28.12       28.09       28.05       28.01       27.97    
        27.91       27.86       27.80       27.73       27.65       27.57       27.48       27.38       27.28       27.16    
        27.04       26.90       26.76       26.60       26.42       26.22       26.00       25.75       25.47       25.12    
  22    28.19       28.18       28.17       28.16       28.14       28.12       28.09       28.05       28.01       27.97    
        27.91       27.86       27.80       27.73       27.65       27.57       27.48       27.38       27.28       27.16    
        27.04       26.90       26.76       26.60       26.42       26.22       26.00       25.75       25.47       25.12    
  23    28.19       28.18       28.17       28.16       28.14       28.12       28.09       28.05       28.01       27.97    
        27.91       27.86       27.80       27.73       27.65       27.57       27.48       27.38       27.28       27.16    
        27.04       26.90       26.76       26.60       26.42       26.22       26.00       25.75       25.47       25.12    
  24    28.19       28.18       28.17       28.16       28.14       28.12       28.09       28.05       28.01       27.97    
        27.91       27.86       27.80       27.73       27.65       27.57       27.48       27.38       27.28       27.16    
        27.04       26.90       26.76       26.60       26.42       26.22       26.00       25.75       25.47       25.12    
  25    28.19       28.18       28.17       28.16       28.14       28.12       28.09       28.05       28.01       27.97    
        27.91       27.86       27.80       27.73       27.65       27.57       27.48       27.38       27.28       27.16    
        27.04       26.90       26.76       26.60       26.42       26.22       26.00       25.75       25.47       25.12    
  26    28.19       28.18       28.17       28.16       28.14       28.12       28.09       28.05       28.01       27.97    
        27.91       27.86       27.80       27.73       27.65       27.57       27.48       27.38       27.28       27.16    
        27.04       26.90       26.76       26.60       26.42       26.22       26.00       25.75       25.47       25.12    
  27    28.19       28.18       28.17       28.16       28.14       28.12       28.09       28.05       28.01       27.97    
        27.91       27.86       27.80       27.73       27.65       27.57       27.48       27.38       27.28       27.16    
        27.04       26.90       26.76       26.60       26.42       26.22       26.00       25.75       25.47       25.12    
  28    28.19       28.18       28.17       28.16       28.14       28.12       28.09       28.05       28.01       27.97    
        27.91       27.86       27.80       27.73       27.65       27.57       27.48       27.38       27.28       27.16    
        27.04       26.90       26.76       26.60       26.42       26.22       26.00       25.75       25.47       25.12    
  29    28.19       28.18       28.17       28.16       28.14       28.12       28.09       28.05       28.01       27.97    
        27.91       27.86       27.80       27.73       27.65       27.57       27.48       27.38       27.28       27.16    
        27.04       26.90       26.76       26.60       26.42       26.22       26.00       25.75       25.47       25.12    
  30    28.19       28.18       28.17       28.16       28.14       28.12       28.09       28.05       28.01       27.97    
        27.91       27.86       27.80       27.73       27.65       27.57       27.48       27.38       27.28       27.16    
        27.04       26.90       26.76       26.60       26.42       26.22       26.00       25.75       25.47       25.12    

 HEAD WILL BE SAVED ON UNIT 1017 AT END OF TIME STEP   10, STRESS PERIOD   26


  VOLUME BUDGET FOR ENTIRE MODEL AT END OF TIME STEP   10, STRESS PERIOD  26
  ---------------------------------------------------------------------------------------------------

     CUMULATIVE VOLUME      L**3       RATES FOR THIS TIME STEP      L**3/T          PACKAGE NAME    
     ------------------                 ------------------------                     ----------------

           IN:                                      IN:
           ---                                      ---
              STO-SS =          40.3449                STO-SS =           0.0000     STORAGE         
              STO-SY =       25550.1160                STO-SY =           0.0000     STORAGE         
                 RCH =      128235.6693                   RCH =         286.0273     RCHA            
                 CHD =           0.0000                   CHD =           0.0000     CHD             

            TOTAL IN =      153826.1302              TOTAL IN =         286.0273

          OUT:                                     OUT:
          ----                                     ----
              STO-SS =          30.6640                STO-SS =           0.1329     STORAGE         
              STO-SY =       19636.6951                STO-SY =          82.6872     STORAGE         
                 RCH =           0.0000                   RCH =           0.0000     RCHA            
                 CHD =      134158.4311                   CHD =         203.2152     CHD             

           TOTAL OUT =      153825.7903             TOTAL OUT =         286.0353

            IN - OUT =           0.3399              IN - OUT =      -7.9909E-03

 PERCENT DISCREPANCY =           0.00     PERCENT DISCREPANCY =          -0.00




         TIME SUMMARY AT END OF TIME STEP   10 IN STRESS PERIOD   26
                    SECONDS     MINUTES      HOURS       DAYS        YEARS
                    -----------------------------------------------------------
   TIME STEP LENGTH 2.59200E+05  4320.0      72.000      3.0000     8.21355E-03
 STRESS PERIOD TIME 2.59200E+06  43200.      720.00      30.000     8.21355E-02
         TOTAL TIME 6.48864E+07 1.08144E+06  18024.      751.00      2.0561    

 OUTPUT CONTROL FOR STRESS PERIOD 27 IS REPEATED USING SETTINGS FROM A PREVIOUS STRESS PERIOD.


 STRESS PERIOD 27 IS TRANSIENT


                 RECHARGE =  0.2465750E-02
 UBDSV1 SAVING           STO-SS ON UNIT   1016 AT TIME STEP      1, STRESS PERIOD     27
 UBDSV1 SAVING           STO-SY ON UNIT   1016 AT TIME STEP      1, STRESS PERIOD     27
 UBDSV1 SAVING     FLOW-JA-FACE ON UNIT   1016 AT TIME STEP      1, STRESS PERIOD     27
 UBDSV06 SAVING              RCH IN MODEL TEST_TRANS       PACKAGE TEST_TRANS      CONNECTED TO MODEL TEST_TRANS       PACKAGE RCHA             ON UNIT   1016 AT TIME STEP      1, STRESS PERIOD     27
 UBDSV06 SAVING              CHD IN MODEL TEST_TRANS       PACKAGE TEST_TRANS      CONNECTED TO MODEL TEST_TRANS       PACKAGE CHD              ON UNIT   1016 AT TIME STEP      1, STRESS PERIOD     27
1
  HEAD IN LAYER   1 AT END OF TIME STEP   1 IN STRESS PERIOD   27
  ---------------------------------------------------------------------------

            1           2           3           4           5           6           7           8           9          10
           11          12          13          14          15          16          17          18          19          20
           21          22          23          24          25          26          27          28          29          30
 ........................................................................................................................
   1    28.19       28.19       28.18       28.16       28.14       28.12       28.09       28.05       28.01       27.97    
        27.92       27.86       27.80       27.73       27.65       27.57       27.48       27.39       27.28       27.17    
        27.04       26.91       26.76       26.60       26.42       26.23       26.02       25.78       25.52       25.23    
   2    28.19       28.19       28.18       28.16       28.14       28.12       28.09       28.05       28.01       27.97    
        27.92       27.86       27.80       27.73       27.65       27.57       27.48       27.39       27.28       27.17    
        27.04       26.91       26.76       26.60       26.42       26.23       26.02       25.78       25.52       25.23    
   3    28.19       28.19       28.18       28.16       28.14       28.12       28.09       28.05       28.01       27.97    
        27.92       27.86       27.80       27.73       27.65       27.57       27.48       27.39       27.28       27.17    
        27.04       26.91       26.76       26.60       26.42       26.23       26.02       25.78       25.52       25.23    
   4    28.19       28.19       28.18       28.16       28.14       28.12       28.09       28.05       28.01       27.97    
        27.92       27.86       27.80       27.73       27.65       27.57       27.48       27.39       27.28       27.17    
        27.04       26.91       26.76       26.60       26.42       26.23       26.02       25.78       25.52       25.23    
   5    28.19       28.19       28.18       28.16       28.14       28.12       28.09       28.05       28.01       27.97    
        27.92       27.86       27.80       27.73       27.65       27.57       27.48       27.39       27.28       27.17    
        27.04       26.91       26.76       26.60       26.42       26.23       26.02       25.78       25.52       25.23    
   6    28.19       28.19       28.18       28.16       28.14       28.12       28.09       28.05       28.01       27.97    
        27.92       27.86       27.80       27.73       27.65       27.57       27.48       27.39       27.28       27.17    
        27.04       26.91       26.76       26.60       26.42       26.23       26.02       25.78       25.52       25.23    
   7    28.19       28.19       28.18       28.16       28.14       28.12       28.09       28.05       28.01       27.97    
        27.92       27.86       27.80       27.73       27.65       27.57       27.48       27.39       27.28       27.17    
        27.04       26.91       26.76       26.60       26.42       26.23       26.02       25.78       25.52       25.23    
   8    28.19       28.19       28.18       28.16       28.14       28.12       28.09       28.05       28.01       27.97    
        27.92       27.86       27.80       27.73       27.65       27.57       27.48       27.39       27.28       27.17    
        27.04       26.91       26.76       26.60       26.42       26.23       26.02       25.78       25.52       25.23    
   9    28.19       28.19       28.18       28.16       28.14       28.12       28.09       28.05       28.01       27.97    
        27.92       27.86       27.80       27.73       27.65       27.57       27.48       27.39       27.28       27.17    
        27.04       26.91       26.76       26.60       26.42       26.23       26.02       25.78       25.52       25.23    
  10    28.19       28.19       28.18       28.16       28.14       28.12       28.09       28.05       28.01       27.97    
        27.92       27.86       27.80       27.73       27.65       27.57       27.48       27.39       27.28       27.17    
        27.04       26.91       26.76       26.60       26.42       26.23       26.02       25.78       25.52       25.23    
  11    28.19       28.19       28.18       28.16       28.14       28.12       28.09       28.05       28.01       27.97    
        27.92       27.86       27.80       27.73       27.65       27.57       27.48       27.39       27.28       27.17    
        27.04       26.91       26.76       26.60       26.42       26.23       26.02       25.78       25.52       25.23    
  12    28.19       28.19       28.18       28.16       28.14       28.12       28.09       28.05       28.01       27.97    
        27.92       27.86       27.80       27.73       27.65       27.57       27.48       27.39       27.28       27.17    
        27.04       26.91       26.76       26.60       26.42       26.23       26.02       25.78       25.52       25.23    
  13    28.19       28.19       28.18       28.16       28.14       28.12       28.09       28.05       28.01       27.97    
        27.92       27.86       27.80       27.73       27.65       27.57       27.48       27.39       27.28       27.17    
        27.04       26.91       26.76       26.60       26.42       26.23       26.02       25.78       25.52       25.23    
  14    28.19       28.19       28.18       28.16       28.14       28.12       28.09       28.05       28.01       27.97    
        27.92       27.86       27.80       27.73       27.65       27.57       27.48       27.39       27.28       27.17    
        27.04       26.91       26.76       26.60       26.42       26.23       26.02       25.78       25.52       25.23    
  15    28.19       28.19       28.18       28.16       28.14       28.12       28.09       28.05       28.01       27.97    
        27.92       27.86       27.80       27.73       27.65       27.57       27.48       27.39       27.28       27.17    
        27.04       26.91       26.76       26.60       26.42       26.23       26.02       25.78       25.52       25.23    
  16    28.19       28.19       28.18       28.16       28.14       28.12       28.09       28.05       28.01       27.97    
        27.92       27.86       27.80       27.73       27.65       27.57       27.48       27.39       27.28       27.17    
        27.04       26.91       26.76       26.60       26.42       26.23       26.02       25.78       25.52       25.23    
  17    28.19       28.19       28.18       28.16       28.14       28.12       28.09       28.05       28.01       27.97    
        27.92       27.86       27.80       27.73       27.65       27.57       27.48       27.39       27.28       27.17    
        27.04       26.91       26.76       26.60       26.42       26.23       26.02       25.78       25.52       25.23    
  18    28.19       28.19       28.18       28.16       28.14       28.12       28.09       28.05       28.01       27.97    
        27.92       27.86       27.80       27.73       27.65       27.57       27.48       27.39       27.28       27.17    
        27.04       26.91       26.76       26.60       26.42       26.23       26.02       25.78       25.52       25.23    
  19    28.19       28.19       28.18       28.16       28.14       28.12       28.09       28.05       28.01       27.97    
        27.92       27.86       27.80       27.73       27.65       27.57       27.48       27.39       27.28       27.17    
        27.04       26.91       26.76       26.60       26.42       26.23       26.02       25.78       25.52       25.23    
  20    28.19       28.19       28.18       28.16       28.14       28.12       28.09       28.05       28.01       27.97    
        27.92       27.86       27.80       27.73       27.65       27.57       27.48       27.39       27.28       27.17    
        27.04       26.91       26.76       26.60       26.42       26.23       26.02       25.78       25.52       25.23    
  21    28.19       28.19       28.18       28.16       28.14       28.12       28.09       28.05       28.01       27.97    
        27.92       27.86       27.80       27.73       27.65       27.57       27.48       27.39       27.28       27.17    
        27.04       26.91       26.76       26.60       26.42       26.23       26.02       25.78       25.52       25.23    
  22    28.19       28.19       28.18       28.16       28.14       28.12       28.09       28.05       28.01       27.97    
        27.92       27.86       27.80       27.73       27.65       27.57       27.48       27.39       27.28       27.17    
        27.04       26.91       26.76       26.60       26.42       26.23       26.02       25.78       25.52       25.23    
  23    28.19       28.19       28.18       28.16       28.14       28.12       28.09       28.05       28.01       27.97    
        27.92       27.86       27.80       27.73       27.65       27.57       27.48       27.39       27.28       27.17    
        27.04       26.91       26.76       26.60       26.42       26.23       26.02       25.78       25.52       25.23    
  24    28.19       28.19       28.18       28.16       28.14       28.12       28.09       28.05       28.01       27.97    
        27.92       27.86       27.80       27.73       27.65       27.57       27.48       27.39       27.28       27.17    
        27.04       26.91       26.76       26.60       26.42       26.23       26.02       25.78       25.52       25.23    
  25    28.19       28.19       28.18       28.16       28.14       28.12       28.09       28.05       28.01       27.97    
        27.92       27.86       27.80       27.73       27.65       27.57       27.48       27.39       27.28       27.17    
        27.04       26.91       26.76       26.60       26.42       26.23       26.02       25.78       25.52       25.23    
  26    28.19       28.19       28.18       28.16       28.14       28.12       28.09       28.05       28.01       27.97    
        27.92       27.86       27.80       27.73       27.65       27.57       27.48       27.39       27.28       27.17    
        27.04       26.91       26.76       26.60       26.42       26.23       26.02       25.78       25.52       25.23    
  27    28.19       28.19       28.18       28.16       28.14       28.12       28.09       28.05       28.01       27.97    
        27.92       27.86       27.80       27.73       27.65       27.57       27.48       27.39       27.28       27.17    
        27.04       26.91       26.76       26.60       26.42       26.23       26.02       25.78       25.52       25.23    
  28    28.19       28.19       28.18       28.16       28.14       28.12       28.09       28.05       28.01       27.97    
        27.92       27.86       27.80       27.73       27.65       27.57       27.48       27.39       27.28       27.17    
        27.04       26.91       26.76       26.60       26.42       26.23       26.02       25.78       25.52       25.23    
  29    28.19       28.19       28.18       28.16       28.14       28.12       28.09       28.05       28.01       27.97    
        27.92       27.86       27.80       27.73       27.65       27.57       27.48       27.39       27.28       27.17    
        27.04       26.91       26.76       26.60       26.42       26.23       26.02       25.78       25.52       25.23    
  30    28.19       28.19       28.18       28.16       28.14       28.12       28.09       28.05       28.01       27.97    
        27.92       27.86       27.80       27.73       27.65       27.57       27.48       27.39       27.28       27.17    
        27.04       26.91       26.76       26.60       26.42       26.23       26.02       25.78       25.52       25.23    

 HEAD WILL BE SAVED ON UNIT 1017 AT END OF TIME STEP    1, STRESS PERIOD   27



         TIME SUMMARY AT END OF TIME STEP    1 IN STRESS PERIOD   27
                    SECONDS     MINUTES      HOURS       DAYS        YEARS
                    -----------------------------------------------------------
   TIME STEP LENGTH 2.59200E+05  4320.0      72.000      3.0000     8.21355E-03
 STRESS PERIOD TIME 2.59200E+05  4320.0      72.000      3.0000     8.21355E-03
         TOTAL TIME 6.51456E+07 1.08576E+06  18096.      754.00      2.0643    
 UBDSV1 SAVING           STO-SS ON UNIT   1016 AT TIME STEP      2, STRESS PERIOD     27
 UBDSV1 SAVING           STO-SY ON UNIT   1016 AT TIME STEP      2, STRESS PERIOD     27
 UBDSV1 SAVING     FLOW-JA-FACE ON UNIT   1016 AT TIME STEP      2, STRESS PERIOD     27
 UBDSV06 SAVING              RCH IN MODEL TEST_TRANS       PACKAGE TEST_TRANS      CONNECTED TO MODEL TEST_TRANS       PACKAGE RCHA             ON UNIT   1016 AT TIME STEP      2, STRESS PERIOD     27
 UBDSV06 SAVING              CHD IN MODEL TEST_TRANS       PACKAGE TEST_TRANS      CONNECTED TO MODEL TEST_TRANS       PACKAGE CHD              ON UNIT   1016 AT TIME STEP      2, STRESS PERIOD     27

 HEAD WILL BE SAVED ON UNIT 1017 AT END OF TIME STEP    2, STRESS PERIOD   27
 UBDSV1 SAVING           STO-SS ON UNIT   1016 AT TIME STEP      3, STRESS PERIOD     27
 UBDSV1 SAVING           STO-SY ON UNIT   1016 AT TIME STEP      3, STRESS PERIOD     27
 UBDSV1 SAVING     FLOW-JA-FACE ON UNIT   1016 AT TIME STEP      3, STRESS PERIOD     27
 UBDSV06 SAVING              RCH IN MODEL TEST_TRANS       PACKAGE TEST_TRANS      CONNECTED TO MODEL TEST_TRANS       PACKAGE RCHA             ON UNIT   1016 AT TIME STEP      3, STRESS PERIOD     27
 UBDSV06 SAVING              CHD IN MODEL TEST_TRANS       PACKAGE TEST_TRANS      CONNECTED TO MODEL TEST_TRANS       PACKAGE CHD              ON UNIT   1016 AT TIME STEP      3, STRESS PERIOD     27

 HEAD WILL BE SAVED ON UNIT 1017 AT END OF TIME STEP    3, STRESS PERIOD   27
 UBDSV1 SAVING           STO-SS ON UNIT   1016 AT TIME STEP      4, STRESS PERIOD     27
 UBDSV1 SAVING           STO-SY ON UNIT   1016 AT TIME STEP      4, STRESS PERIOD     27
 UBDSV1 SAVING     FLOW-JA-FACE ON UNIT   1016 AT TIME STEP      4, STRESS PERIOD     27
 UBDSV06 SAVING              RCH IN MODEL TEST_TRANS       PACKAGE TEST_TRANS      CONNECTED TO MODEL TEST_TRANS       PACKAGE RCHA             ON UNIT   1016 AT TIME STEP      4, STRESS PERIOD     27
 UBDSV06 SAVING              CHD IN MODEL TEST_TRANS       PACKAGE TEST_TRANS      CONNECTED TO MODEL TEST_TRANS       PACKAGE CHD              ON UNIT   1016 AT TIME STEP      4, STRESS PERIOD     27

 HEAD WILL BE SAVED ON UNIT 1017 AT END OF TIME STEP    4, STRESS PERIOD   27
 UBDSV1 SAVING           STO-SS ON UNIT   1016 AT TIME STEP      5, STRESS PERIOD     27
 UBDSV1 SAVING           STO-SY ON UNIT   1016 AT TIME STEP      5, STRESS PERIOD     27
 UBDSV1 SAVING     FLOW-JA-FACE ON UNIT   1016 AT TIME STEP      5, STRESS PERIOD     27
 UBDSV06 SAVING              RCH IN MODEL TEST_TRANS       PACKAGE TEST_TRANS      CONNECTED TO MODEL TEST_TRANS       PACKAGE RCHA             ON UNIT   1016 AT TIME STEP      5, STRESS PERIOD     27
 UBDSV06 SAVING              CHD IN MODEL TEST_TRANS       PACKAGE TEST_TRANS      CONNECTED TO MODEL TEST_TRANS       PACKAGE CHD              ON UNIT   1016 AT TIME STEP      5, STRESS PERIOD     27

 HEAD WILL BE SAVED ON UNIT 1017 AT END OF TIME STEP    5, STRESS PERIOD   27
 UBDSV1 SAVING           STO-SS ON UNIT   1016 AT TIME STEP      6, STRESS PERIOD     27
 UBDSV1 SAVING           STO-SY ON UNIT   1016 AT TIME STEP      6, STRESS PERIOD     27
 UBDSV1 SAVING     FLOW-JA-FACE ON UNIT   1016 AT TIME STEP      6, STRESS PERIOD     27
 UBDSV06 SAVING              RCH IN MODEL TEST_TRANS       PACKAGE TEST_TRANS      CONNECTED TO MODEL TEST_TRANS       PACKAGE RCHA             ON UNIT   1016 AT TIME STEP      6, STRESS PERIOD     27
 UBDSV06 SAVING              CHD IN MODEL TEST_TRANS       PACKAGE TEST_TRANS      CONNECTED TO MODEL TEST_TRANS       PACKAGE CHD              ON UNIT   1016 AT TIME STEP      6, STRESS PERIOD     27

 HEAD WILL BE SAVED ON UNIT 1017 AT END OF TIME STEP    6, STRESS PERIOD   27
 UBDSV1 SAVING           STO-SS ON UNIT   1016 AT TIME STEP      7, STRESS PERIOD     27
 UBDSV1 SAVING           STO-SY ON UNIT   1016 AT TIME STEP      7, STRESS PERIOD     27
 UBDSV1 SAVING     FLOW-JA-FACE ON UNIT   1016 AT TIME STEP      7, STRESS PERIOD     27
 UBDSV06 SAVING              RCH IN MODEL TEST_TRANS       PACKAGE TEST_TRANS      CONNECTED TO MODEL TEST_TRANS       PACKAGE RCHA             ON UNIT   1016 AT TIME STEP      7, STRESS PERIOD     27
 UBDSV06 SAVING              CHD IN MODEL TEST_TRANS       PACKAGE TEST_TRANS      CONNECTED TO MODEL TEST_TRANS       PACKAGE CHD              ON UNIT   1016 AT TIME STEP      7, STRESS PERIOD     27

 HEAD WILL BE SAVED ON UNIT 1017 AT END OF TIME STEP    7, STRESS PERIOD   27
 UBDSV1 SAVING           STO-SS ON UNIT   1016 AT TIME STEP      8, STRESS PERIOD     27
 UBDSV1 SAVING           STO-SY ON UNIT   1016 AT TIME STEP      8, STRESS PERIOD     27
 UBDSV1 SAVING     FLOW-JA-FACE ON UNIT   1016 AT TIME STEP      8, STRESS PERIOD     27
 UBDSV06 SAVING              RCH IN MODEL TEST_TRANS       PACKAGE TEST_TRANS      CONNECTED TO MODEL TEST_TRANS       PACKAGE RCHA             ON UNIT   1016 AT TIME STEP      8, STRESS PERIOD     27
 UBDSV06 SAVING              CHD IN MODEL TEST_TRANS       PACKAGE TEST_TRANS      CONNECTED TO MODEL TEST_TRANS       PACKAGE CHD              ON UNIT   1016 AT TIME STEP      8, STRESS PERIOD     27

 HEAD WILL BE SAVED ON UNIT 1017 AT END OF TIME STEP    8, STRESS PERIOD   27
 UBDSV1 SAVING           STO-SS ON UNIT   1016 AT TIME STEP      9, STRESS PERIOD     27
 UBDSV1 SAVING           STO-SY ON UNIT   1016 AT TIME STEP      9, STRESS PERIOD     27
 UBDSV1 SAVING     FLOW-JA-FACE ON UNIT   1016 AT TIME STEP      9, STRESS PERIOD     27
 UBDSV06 SAVING              RCH IN MODEL TEST_TRANS       PACKAGE TEST_TRANS      CONNECTED TO MODEL TEST_TRANS       PACKAGE RCHA             ON UNIT   1016 AT TIME STEP      9, STRESS PERIOD     27
 UBDSV06 SAVING              CHD IN MODEL TEST_TRANS       PACKAGE TEST_TRANS      CONNECTED TO MODEL TEST_TRANS       PACKAGE CHD              ON UNIT   1016 AT TIME STEP      9, STRESS PERIOD     27

 HEAD WILL BE SAVED ON UNIT 1017 AT END OF TIME STEP    9, STRESS PERIOD   27
 UBDSV1 SAVING           STO-SS ON UNIT   1016 AT TIME STEP     10, STRESS PERIOD     27
 UBDSV1 SAVING           STO-SY ON UNIT   1016 AT TIME STEP     10, STRESS PERIOD     27
 UBDSV1 SAVING     FLOW-JA-FACE ON UNIT   1016 AT TIME STEP     10, STRESS PERIOD     27
 UBDSV06 SAVING              RCH IN MODEL TEST_TRANS       PACKAGE TEST_TRANS      CONNECTED TO MODEL TEST_TRANS       PACKAGE RCHA             ON UNIT   1016 AT TIME STEP     10, STRESS PERIOD     27
 UBDSV06 SAVING              CHD IN MODEL TEST_TRANS       PACKAGE TEST_TRANS      CONNECTED TO MODEL TEST_TRANS       PACKAGE CHD              ON UNIT   1016 AT TIME STEP     10, STRESS PERIOD     27
1
  HEAD IN LAYER   1 AT END OF TIME STEP  10 IN STRESS PERIOD   27
  ---------------------------------------------------------------------------

            1           2           3           4           5           6           7           8           9          10
           11          12          13          14          15          16          17          18          19          20
           21          22          23          24          25          26          27          28          29          30
 ........................................................................................................................
   1    28.23       28.22       28.21       28.20       28.18       28.16       28.13       28.09       28.05       28.01    
        27.95       27.90       27.83       27.76       27.69       27.61       27.52       27.42       27.31       27.20    
        27.08       26.94       26.79       26.64       26.46       26.27       26.06       25.82       25.55       25.23    
   2    28.23       28.22       28.21       28.20       28.18       28.16       28.13       28.09       28.05       28.01    
        27.95       27.90       27.83       27.76       27.69       27.61       27.52       27.42       27.31       27.20    
        27.08       26.94       26.79       26.64       26.46       26.27       26.06       25.82       25.55       25.23    
   3    28.23       28.22       28.21       28.20       28.18       28.16       28.13       28.09       28.05       28.01    
        27.95       27.90       27.83       27.76       27.69       27.61       27.52       27.42       27.31       27.20    
        27.08       26.94       26.79       26.64       26.46       26.27       26.06       25.82       25.55       25.23    
   4    28.23       28.22       28.21       28.20       28.18       28.16       28.13       28.09       28.05       28.01    
        27.95       27.90       27.83       27.76       27.69       27.61       27.52       27.42       27.31       27.20    
        27.08       26.94       26.79       26.64       26.46       26.27       26.06       25.82       25.55       25.23    
   5    28.23       28.22       28.21       28.20       28.18       28.16       28.13       28.09       28.05       28.01    
        27.95       27.90       27.83       27.76       27.69       27.61       27.52       27.42       27.31       27.20    
        27.08       26.94       26.79       26.64       26.46       26.27       26.06       25.82       25.55       25.23    
   6    28.23       28.22       28.21       28.20       28.18       28.16       28.13       28.09       28.05       28.01    
        27.95       27.90       27.83       27.76       27.69       27.61       27.52       27.42       27.31       27.20    
        27.08       26.94       26.79       26.64       26.46       26.27       26.06       25.82       25.55       25.23    
   7    28.23       28.22       28.21       28.20       28.18       28.16       28.13       28.09       28.05       28.01    
        27.95       27.90       27.83       27.76       27.69       27.61       27.52       27.42       27.31       27.20    
        27.08       26.94       26.79       26.64       26.46       26.27       26.06       25.82       25.55       25.23    
   8    28.23       28.22       28.21       28.20       28.18       28.16       28.13       28.09       28.05       28.01    
        27.95       27.90       27.83       27.76       27.69       27.61       27.52       27.42       27.31       27.20    
        27.08       26.94       26.79       26.64       26.46       26.27       26.06       25.82       25.55       25.23    
   9    28.23       28.22       28.21       28.20       28.18       28.16       28.13       28.09       28.05       28.01    
        27.95       27.90       27.83       27.76       27.69       27.61       27.52       27.42       27.31       27.20    
        27.08       26.94       26.79       26.64       26.46       26.27       26.06       25.82       25.55       25.23    
  10    28.23       28.22       28.21       28.20       28.18       28.16       28.13       28.09       28.05       28.01    
        27.95       27.90       27.83       27.76       27.69       27.61       27.52       27.42       27.31       27.20    
        27.08       26.94       26.79       26.64       26.46       26.27       26.06       25.82       25.55       25.23    
  11    28.23       28.22       28.21       28.20       28.18       28.16       28.13       28.09       28.05       28.01    
        27.95       27.90       27.83       27.76       27.69       27.61       27.52       27.42       27.31       27.20    
        27.08       26.94       26.79       26.64       26.46       26.27       26.06       25.82       25.55       25.23    
  12    28.23       28.22       28.21       28.20       28.18       28.16       28.13       28.09       28.05       28.01    
        27.95       27.90       27.83       27.76       27.69       27.61       27.52       27.42       27.31       27.20    
        27.08       26.94       26.79       26.64       26.46       26.27       26.06       25.82       25.55       25.23    
  13    28.23       28.22       28.21       28.20       28.18       28.16       28.13       28.09       28.05       28.01    
        27.95       27.90       27.83       27.76       27.69       27.61       27.52       27.42       27.31       27.20    
        27.08       26.94       26.79       26.64       26.46       26.27       26.06       25.82       25.55       25.23    
  14    28.23       28.22       28.21       28.20       28.18       28.16       28.13       28.09       28.05       28.01    
        27.95       27.90       27.83       27.76       27.69       27.61       27.52       27.42       27.31       27.20    
        27.08       26.94       26.79       26.64       26.46       26.27       26.06       25.82       25.55       25.23    
  15    28.23       28.22       28.21       28.20       28.18       28.16       28.13       28.09       28.05       28.01    
        27.95       27.90       27.83       27.76       27.69       27.61       27.52       27.42       27.31       27.20    
        27.08       26.94       26.79       26.64       26.46       26.27       26.06       25.82       25.55       25.23    
  16    28.23       28.22       28.21       28.20       28.18       28.16       28.13       28.09       28.05       28.01    
        27.95       27.90       27.83       27.76       27.69       27.61       27.52       27.42       27.31       27.20    
        27.08       26.94       26.79       26.64       26.46       26.27       26.06       25.82       25.55       25.23    
  17    28.23       28.22       28.21       28.20       28.18       28.16       28.13       28.09       28.05       28.01    
        27.95       27.90       27.83       27.76       27.69       27.61       27.52       27.42       27.31       27.20    
        27.08       26.94       26.79       26.64       26.46       26.27       26.06       25.82       25.55       25.23    
  18    28.23       28.22       28.21       28.20       28.18       28.16       28.13       28.09       28.05       28.01    
        27.95       27.90       27.83       27.76       27.69       27.61       27.52       27.42       27.31       27.20    
        27.08       26.94       26.79       26.64       26.46       26.27       26.06       25.82       25.55       25.23    
  19    28.23       28.22       28.21       28.20       28.18       28.16       28.13       28.09       28.05       28.01    
        27.95       27.90       27.83       27.76       27.69       27.61       27.52       27.42       27.31       27.20    
        27.08       26.94       26.79       26.64       26.46       26.27       26.06       25.82       25.55       25.23    
  20    28.23       28.22       28.21       28.20       28.18       28.16       28.13       28.09       28.05       28.01    
        27.95       27.90       27.83       27.76       27.69       27.61       27.52       27.42       27.31       27.20    
        27.08       26.94       26.79       26.64       26.46       26.27       26.06       25.82       25.55       25.23    
  21    28.23       28.22       28.21       28.20       28.18       28.16       28.13       28.09       28.05       28.01    
        27.95       27.90       27.83       27.76       27.69       27.61       27.52       27.42       27.31       27.20    
        27.08       26.94       26.79       26.64       26.46       26.27       26.06       25.82       25.55       25.23    
  22    28.23       28.22       28.21       28.20       28.18       28.16       28.13       28.09       28.05       28.01    
        27.95       27.90       27.83       27.76       27.69       27.61       27.52       27.42       27.31       27.20    
        27.08       26.94       26.79       26.64       26.46       26.27       26.06       25.82       25.55       25.23    
  23    28.23       28.22       28.21       28.20       28.18       28.16       28.13       28.09       28.05       28.01    
        27.95       27.90       27.83       27.76       27.69       27.61       27.52       27.42       27.31       27.20    
        27.08       26.94       26.79       26.64       26.46       26.27       26.06       25.82       25.55       25.23    
  24    28.23       28.22       28.21       28.20       28.18       28.16       28.13       28.09       28.05       28.01    
        27.95       27.90       27.83       27.76       27.69       27.61       27.52       27.42       27.31       27.20    
        27.08       26.94       26.79       26.64       26.46       26.27       26.06       25.82       25.55       25.23    
  25    28.23       28.22       28.21       28.20       28.18       28.16       28.13       28.09       28.05       28.01    
        27.95       27.90       27.83       27.76       27.69       27.61       27.52       27.42       27.31       27.20    
        27.08       26.94       26.79       26.64       26.46       26.27       26.06       25.82       25.55       25.23    
  26    28.23       28.22       28.21       28.20       28.18       28.16       28.13       28.09       28.05       28.01    
        27.95       27.90       27.83       27.76       27.69       27.61       27.52       27.42       27.31       27.20    
        27.08       26.94       26.79       26.64       26.46       26.27       26.06       25.82       25.55       25.23    
  27    28.23       28.22       28.21       28.20       28.18       28.16       28.13       28.09       28.05       28.01    
        27.95       27.90       27.83       27.76       27.69       27.61       27.52       27.42       27.31       27.20    
        27.08       26.94       26.79       26.64       26.46       26.27       26.06       25.82       25.55       25.23    
  28    28.23       28.22       28.21       28.20       28.18       28.16       28.13       28.09       28.05       28.01    
        27.95       27.90       27.83       27.76       27.69       27.61       27.52       27.42       27.31       27.20    
        27.08       26.94       26.79       26.64       26.46       26.27       26.06       25.82       25.55       25.23    
  29    28.23       28.22       28.21       28.20       28.18       28.16       28.13       28.09       28.05       28.01    
        27.95       27.90       27.83       27.76       27.69       27.61       27.52       27.42       27.31       27.20    
        27.08       26.94       26.79       26.64       26.46       26.27       26.06       25.82       25.55       25.23    
  30    28.23       28.22       28.21       28.20       28.18       28.16       28.13       28.09       28.05       28.01    
        27.95       27.90       27.83       27.76       27.69       27.61       27.52       27.42       27.31       27.20    
        27.08       26.94       26.79       26.64       26.46       26.27       26.06       25.82       25.55       25.23    

 HEAD WILL BE SAVED ON UNIT 1017 AT END OF TIME STEP   10, STRESS PERIOD   27


  VOLUME BUDGET FOR ENTIRE MODEL AT END OF TIME STEP   10, STRESS PERIOD  27
  ---------------------------------------------------------------------------------------------------

     CUMULATIVE VOLUME      L**3       RATES FOR THIS TIME STEP      L**3/T          PACKAGE NAME    
     ------------------                 ------------------------                     ----------------

           IN:                                      IN:
           ---                                      ---
              STO-SS =          40.3449                STO-SS =           0.0000     STORAGE         
              STO-SY =       25550.1160                STO-SY =           0.0000     STORAGE         
                 RCH =      134671.2768                   RCH =         214.5203     RCHA            
                 CHD =           0.0000                   CHD =           0.0000     CHD             

            TOTAL IN =      160261.7377              TOTAL IN =         214.5203

          OUT:                                     OUT:
          ----                                     ----
              STO-SS =          31.8269                STO-SS =       3.1332E-02     STORAGE         
              STO-SY =       20373.7161                STO-SY =          19.4665     STORAGE         
                 RCH =           0.0000                   RCH =           0.0000     RCHA            
                 CHD =      139856.1586                   CHD =         195.0526     CHD             

           TOTAL OUT =      160261.7017             TOTAL OUT =         214.5504

            IN - OUT =       3.6029E-02              IN - OUT =      -3.0150E-02

 PERCENT DISCREPANCY =           0.00     PERCENT DISCREPANCY =          -0.01




         TIME SUMMARY AT END OF TIME STEP   10 IN STRESS PERIOD   27
                    SECONDS     MINUTES      HOURS       DAYS        YEARS
                    -----------------------------------------------------------
   TIME STEP LENGTH 2.59200E+05  4320.0      72.000      3.0000     8.21355E-03
 STRESS PERIOD TIME 2.59200E+06  43200.      720.00      30.000     8.21355E-02
         TOTAL TIME 6.74784E+07 1.12464E+06  18744.      781.00      2.1383    

 OUTPUT CONTROL FOR STRESS PERIOD 28 IS REPEATED USING SETTINGS FROM A PREVIOUS STRESS PERIOD.


 STRESS PERIOD 28 IS TRANSIENT


                 RECHARGE =  0.1643840E-02
 UBDSV1 SAVING           STO-SS ON UNIT   1016 AT TIME STEP      1, STRESS PERIOD     28
 UBDSV1 SAVING           STO-SY ON UNIT   1016 AT TIME STEP      1, STRESS PERIOD     28
 UBDSV1 SAVING     FLOW-JA-FACE ON UNIT   1016 AT TIME STEP      1, STRESS PERIOD     28
 UBDSV06 SAVING              RCH IN MODEL TEST_TRANS       PACKAGE TEST_TRANS      CONNECTED TO MODEL TEST_TRANS       PACKAGE RCHA             ON UNIT   1016 AT TIME STEP      1, STRESS PERIOD     28
 UBDSV06 SAVING              CHD IN MODEL TEST_TRANS       PACKAGE TEST_TRANS      CONNECTED TO MODEL TEST_TRANS       PACKAGE CHD              ON UNIT   1016 AT TIME STEP      1, STRESS PERIOD     28
1
  HEAD IN LAYER   1 AT END OF TIME STEP   1 IN STRESS PERIOD   28
  ---------------------------------------------------------------------------

            1           2           3           4           5           6           7           8           9          10
           11          12          13          14          15          16          17          18          19          20
           21          22          23          24          25          26          27          28          29          30
 ........................................................................................................................
   1    28.22       28.22       28.21       28.19       28.17       28.15       28.12       28.08       28.04       28.00    
        27.95       27.89       27.83       27.76       27.68       27.60       27.51       27.41       27.31       27.19    
        27.07       26.93       26.79       26.63       26.46       26.27       26.07       25.84       25.60       25.34    
   2    28.22       28.22       28.21       28.19       28.17       28.15       28.12       28.08       28.04       28.00    
        27.95       27.89       27.83       27.76       27.68       27.60       27.51       27.41       27.31       27.19    
        27.07       26.93       26.79       26.63       26.46       26.27       26.07       25.84       25.60       25.34    
   3    28.22       28.22       28.21       28.19       28.17       28.15       28.12       28.08       28.04       28.00    
        27.95       27.89       27.83       27.76       27.68       27.60       27.51       27.41       27.31       27.19    
        27.07       26.93       26.79       26.63       26.46       26.27       26.07       25.84       25.60       25.34    
   4    28.22       28.22       28.21       28.19       28.17       28.15       28.12       28.08       28.04       28.00    
        27.95       27.89       27.83       27.76       27.68       27.60       27.51       27.41       27.31       27.19    
        27.07       26.93       26.79       26.63       26.46       26.27       26.07       25.84       25.60       25.34    
   5    28.22       28.22       28.21       28.19       28.17       28.15       28.12       28.08       28.04       28.00    
        27.95       27.89       27.83       27.76       27.68       27.60       27.51       27.41       27.31       27.19    
        27.07       26.93       26.79       26.63       26.46       26.27       26.07       25.84       25.60       25.34    
   6    28.22       28.22       28.21       28.19       28.17       28.15       28.12       28.08       28.04       28.00    
        27.95       27.89       27.83       27.76       27.68       27.60       27.51       27.41       27.31       27.19    
        27.07       26.93       26.79       26.63       26.46       26.27       26.07       25.84       25.60       25.34    
   7    28.22       28.22       28.21       28.19       28.17       28.15       28.12       28.08       28.04       28.00    
        27.95       27.89       27.83       27.76       27.68       27.60       27.51       27.41       27.31       27.19    
        27.07       26.93       26.79       26.63       26.46       26.27       26.07       25.84       25.60       25.34    
   8    28.22       28.22       28.21       28.19       28.17       28.15       28.12       28.08       28.04       28.00    
        27.95       27.89       27.83       27.76       27.68       27.60       27.51       27.41       27.31       27.19    
        27.07       26.93       26.79       26.63       26.46       26.27       26.07       25.84       25.60       25.34    
   9    28.22       28.22       28.21       28.19       28.17       28.15       28.12       28.08       28.04       28.00    
        27.95       27.89       27.83       27.76       27.68       27.60       27.51       27.41       27.31       27.19    
        27.07       26.93       26.79       26.63       26.46       26.27       26.07       25.84       25.60       25.34    
  10    28.22       28.22       28.21       28.19       28.17       28.15       28.12       28.08       28.04       28.00    
        27.95       27.89       27.83       27.76       27.68       27.60       27.51       27.41       27.31       27.19    
        27.07       26.93       26.79       26.63       26.46       26.27       26.07       25.84       25.60       25.34    
  11    28.22       28.22       28.21       28.19       28.17       28.15       28.12       28.08       28.04       28.00    
        27.95       27.89       27.83       27.76       27.68       27.60       27.51       27.41       27.31       27.19    
        27.07       26.93       26.79       26.63       26.46       26.27       26.07       25.84       25.60       25.34    
  12    28.22       28.22       28.21       28.19       28.17       28.15       28.12       28.08       28.04       28.00    
        27.95       27.89       27.83       27.76       27.68       27.60       27.51       27.41       27.31       27.19    
        27.07       26.93       26.79       26.63       26.46       26.27       26.07       25.84       25.60       25.34    
  13    28.22       28.22       28.21       28.19       28.17       28.15       28.12       28.08       28.04       28.00    
        27.95       27.89       27.83       27.76       27.68       27.60       27.51       27.41       27.31       27.19    
        27.07       26.93       26.79       26.63       26.46       26.27       26.07       25.84       25.60       25.34    
  14    28.22       28.22       28.21       28.19       28.17       28.15       28.12       28.08       28.04       28.00    
        27.95       27.89       27.83       27.76       27.68       27.60       27.51       27.41       27.31       27.19    
        27.07       26.93       26.79       26.63       26.46       26.27       26.07       25.84       25.60       25.34    
  15    28.22       28.22       28.21       28.19       28.17       28.15       28.12       28.08       28.04       28.00    
        27.95       27.89       27.83       27.76       27.68       27.60       27.51       27.41       27.31       27.19    
        27.07       26.93       26.79       26.63       26.46       26.27       26.07       25.84       25.60       25.34    
  16    28.22       28.22       28.21       28.19       28.17       28.15       28.12       28.08       28.04       28.00    
        27.95       27.89       27.83       27.76       27.68       27.60       27.51       27.41       27.31       27.19    
        27.07       26.93       26.79       26.63       26.46       26.27       26.07       25.84       25.60       25.34    
  17    28.22       28.22       28.21       28.19       28.17       28.15       28.12       28.08       28.04       28.00    
        27.95       27.89       27.83       27.76       27.68       27.60       27.51       27.41       27.31       27.19    
        27.07       26.93       26.79       26.63       26.46       26.27       26.07       25.84       25.60       25.34    
  18    28.22       28.22       28.21       28.19       28.17       28.15       28.12       28.08       28.04       28.00    
        27.95       27.89       27.83       27.76       27.68       27.60       27.51       27.41       27.31       27.19    
        27.07       26.93       26.79       26.63       26.46       26.27       26.07       25.84       25.60       25.34    
  19    28.22       28.22       28.21       28.19       28.17       28.15       28.12       28.08       28.04       28.00    
        27.95       27.89       27.83       27.76       27.68       27.60       27.51       27.41       27.31       27.19    
        27.07       26.93       26.79       26.63       26.46       26.27       26.07       25.84       25.60       25.34    
  20    28.22       28.22       28.21       28.19       28.17       28.15       28.12       28.08       28.04       28.00    
        27.95       27.89       27.83       27.76       27.68       27.60       27.51       27.41       27.31       27.19    
        27.07       26.93       26.79       26.63       26.46       26.27       26.07       25.84       25.60       25.34    
  21    28.22       28.22       28.21       28.19       28.17       28.15       28.12       28.08       28.04       28.00    
        27.95       27.89       27.83       27.76       27.68       27.60       27.51       27.41       27.31       27.19    
        27.07       26.93       26.79       26.63       26.46       26.27       26.07       25.84       25.60       25.34    
  22    28.22       28.22       28.21       28.19       28.17       28.15       28.12       28.08       28.04       28.00    
        27.95       27.89       27.83       27.76       27.68       27.60       27.51       27.41       27.31       27.19    
        27.07       26.93       26.79       26.63       26.46       26.27       26.07       25.84       25.60       25.34    
  23    28.22       28.22       28.21       28.19       28.17       28.15       28.12       28.08       28.04       28.00    
        27.95       27.89       27.83       27.76       27.68       27.60       27.51       27.41       27.31       27.19    
        27.07       26.93       26.79       26.63       26.46       26.27       26.07       25.84       25.60       25.34    
  24    28.22       28.22       28.21       28.19       28.17       28.15       28.12       28.08       28.04       28.00    
        27.95       27.89       27.83       27.76       27.68       27.60       27.51       27.41       27.31       27.19    
        27.07       26.93       26.79       26.63       26.46       26.27       26.07       25.84       25.60       25.34    
  25    28.22       28.22       28.21       28.19       28.17       28.15       28.12       28.08       28.04       28.00    
        27.95       27.89       27.83       27.76       27.68       27.60       27.51       27.41       27.31       27.19    
        27.07       26.93       26.79       26.63       26.46       26.27       26.07       25.84       25.60       25.34    
  26    28.22       28.22       28.21       28.19       28.17       28.15       28.12       28.08       28.04       28.00    
        27.95       27.89       27.83       27.76       27.68       27.60       27.51       27.41       27.31       27.19    
        27.07       26.93       26.79       26.63       26.46       26.27       26.07       25.84       25.60       25.34    
  27    28.22       28.22       28.21       28.19       28.17       28.15       28.12       28.08       28.04       28.00    
        27.95       27.89       27.83       27.76       27.68       27.60       27.51       27.41       27.31       27.19    
        27.07       26.93       26.79       26.63       26.46       26.27       26.07       25.84       25.60       25.34    
  28    28.22       28.22       28.21       28.19       28.17       28.15       28.12       28.08       28.04       28.00    
        27.95       27.89       27.83       27.76       27.68       27.60       27.51       27.41       27.31       27.19    
        27.07       26.93       26.79       26.63       26.46       26.27       26.07       25.84       25.60       25.34    
  29    28.22       28.22       28.21       28.19       28.17       28.15       28.12       28.08       28.04       28.00    
        27.95       27.89       27.83       27.76       27.68       27.60       27.51       27.41       27.31       27.19    
        27.07       26.93       26.79       26.63       26.46       26.27       26.07       25.84       25.60       25.34    
  30    28.22       28.22       28.21       28.19       28.17       28.15       28.12       28.08       28.04       28.00    
        27.95       27.89       27.83       27.76       27.68       27.60       27.51       27.41       27.31       27.19    
        27.07       26.93       26.79       26.63       26.46       26.27       26.07       25.84       25.60       25.34    

 HEAD WILL BE SAVED ON UNIT 1017 AT END OF TIME STEP    1, STRESS PERIOD   28



         TIME SUMMARY AT END OF TIME STEP    1 IN STRESS PERIOD   28
                    SECONDS     MINUTES      HOURS       DAYS        YEARS
                    -----------------------------------------------------------
   TIME STEP LENGTH 2.59200E+05  4320.0      72.000      3.0000     8.21355E-03
 STRESS PERIOD TIME 2.59200E+05  4320.0      72.000      3.0000     8.21355E-03
         TOTAL TIME 6.77376E+07 1.12896E+06  18816.      784.00      2.1465    
 UBDSV1 SAVING           STO-SS ON UNIT   1016 AT TIME STEP      2, STRESS PERIOD     28
 UBDSV1 SAVING           STO-SY ON UNIT   1016 AT TIME STEP      2, STRESS PERIOD     28
 UBDSV1 SAVING     FLOW-JA-FACE ON UNIT   1016 AT TIME STEP      2, STRESS PERIOD     28
 UBDSV06 SAVING              RCH IN MODEL TEST_TRANS       PACKAGE TEST_TRANS      CONNECTED TO MODEL TEST_TRANS       PACKAGE RCHA             ON UNIT   1016 AT TIME STEP      2, STRESS PERIOD     28
 UBDSV06 SAVING              CHD IN MODEL TEST_TRANS       PACKAGE TEST_TRANS      CONNECTED TO MODEL TEST_TRANS       PACKAGE CHD              ON UNIT   1016 AT TIME STEP      2, STRESS PERIOD     28

 HEAD WILL BE SAVED ON UNIT 1017 AT END OF TIME STEP    2, STRESS PERIOD   28
 UBDSV1 SAVING           STO-SS ON UNIT   1016 AT TIME STEP      3, STRESS PERIOD     28
 UBDSV1 SAVING           STO-SY ON UNIT   1016 AT TIME STEP      3, STRESS PERIOD     28
 UBDSV1 SAVING     FLOW-JA-FACE ON UNIT   1016 AT TIME STEP      3, STRESS PERIOD     28
 UBDSV06 SAVING              RCH IN MODEL TEST_TRANS       PACKAGE TEST_TRANS      CONNECTED TO MODEL TEST_TRANS       PACKAGE RCHA             ON UNIT   1016 AT TIME STEP      3, STRESS PERIOD     28
 UBDSV06 SAVING              CHD IN MODEL TEST_TRANS       PACKAGE TEST_TRANS      CONNECTED TO MODEL TEST_TRANS       PACKAGE CHD              ON UNIT   1016 AT TIME STEP      3, STRESS PERIOD     28

 HEAD WILL BE SAVED ON UNIT 1017 AT END OF TIME STEP    3, STRESS PERIOD   28
 UBDSV1 SAVING           STO-SS ON UNIT   1016 AT TIME STEP      4, STRESS PERIOD     28
 UBDSV1 SAVING           STO-SY ON UNIT   1016 AT TIME STEP      4, STRESS PERIOD     28
 UBDSV1 SAVING     FLOW-JA-FACE ON UNIT   1016 AT TIME STEP      4, STRESS PERIOD     28
 UBDSV06 SAVING              RCH IN MODEL TEST_TRANS       PACKAGE TEST_TRANS      CONNECTED TO MODEL TEST_TRANS       PACKAGE RCHA             ON UNIT   1016 AT TIME STEP      4, STRESS PERIOD     28
 UBDSV06 SAVING              CHD IN MODEL TEST_TRANS       PACKAGE TEST_TRANS      CONNECTED TO MODEL TEST_TRANS       PACKAGE CHD              ON UNIT   1016 AT TIME STEP      4, STRESS PERIOD     28

 HEAD WILL BE SAVED ON UNIT 1017 AT END OF TIME STEP    4, STRESS PERIOD   28
 UBDSV1 SAVING           STO-SS ON UNIT   1016 AT TIME STEP      5, STRESS PERIOD     28
 UBDSV1 SAVING           STO-SY ON UNIT   1016 AT TIME STEP      5, STRESS PERIOD     28
 UBDSV1 SAVING     FLOW-JA-FACE ON UNIT   1016 AT TIME STEP      5, STRESS PERIOD     28
 UBDSV06 SAVING              RCH IN MODEL TEST_TRANS       PACKAGE TEST_TRANS      CONNECTED TO MODEL TEST_TRANS       PACKAGE RCHA             ON UNIT   1016 AT TIME STEP      5, STRESS PERIOD     28
 UBDSV06 SAVING              CHD IN MODEL TEST_TRANS       PACKAGE TEST_TRANS      CONNECTED TO MODEL TEST_TRANS       PACKAGE CHD              ON UNIT   1016 AT TIME STEP      5, STRESS PERIOD     28

 HEAD WILL BE SAVED ON UNIT 1017 AT END OF TIME STEP    5, STRESS PERIOD   28
 UBDSV1 SAVING           STO-SS ON UNIT   1016 AT TIME STEP      6, STRESS PERIOD     28
 UBDSV1 SAVING           STO-SY ON UNIT   1016 AT TIME STEP      6, STRESS PERIOD     28
 UBDSV1 SAVING     FLOW-JA-FACE ON UNIT   1016 AT TIME STEP      6, STRESS PERIOD     28
 UBDSV06 SAVING              RCH IN MODEL TEST_TRANS       PACKAGE TEST_TRANS      CONNECTED TO MODEL TEST_TRANS       PACKAGE RCHA             ON UNIT   1016 AT TIME STEP      6, STRESS PERIOD     28
 UBDSV06 SAVING              CHD IN MODEL TEST_TRANS       PACKAGE TEST_TRANS      CONNECTED TO MODEL TEST_TRANS       PACKAGE CHD              ON UNIT   1016 AT TIME STEP      6, STRESS PERIOD     28

 HEAD WILL BE SAVED ON UNIT 1017 AT END OF TIME STEP    6, STRESS PERIOD   28
 UBDSV1 SAVING           STO-SS ON UNIT   1016 AT TIME STEP      7, STRESS PERIOD     28
 UBDSV1 SAVING           STO-SY ON UNIT   1016 AT TIME STEP      7, STRESS PERIOD     28
 UBDSV1 SAVING     FLOW-JA-FACE ON UNIT   1016 AT TIME STEP      7, STRESS PERIOD     28
 UBDSV06 SAVING              RCH IN MODEL TEST_TRANS       PACKAGE TEST_TRANS      CONNECTED TO MODEL TEST_TRANS       PACKAGE RCHA             ON UNIT   1016 AT TIME STEP      7, STRESS PERIOD     28
 UBDSV06 SAVING              CHD IN MODEL TEST_TRANS       PACKAGE TEST_TRANS      CONNECTED TO MODEL TEST_TRANS       PACKAGE CHD              ON UNIT   1016 AT TIME STEP      7, STRESS PERIOD     28

 HEAD WILL BE SAVED ON UNIT 1017 AT END OF TIME STEP    7, STRESS PERIOD   28
 UBDSV1 SAVING           STO-SS ON UNIT   1016 AT TIME STEP      8, STRESS PERIOD     28
 UBDSV1 SAVING           STO-SY ON UNIT   1016 AT TIME STEP      8, STRESS PERIOD     28
 UBDSV1 SAVING     FLOW-JA-FACE ON UNIT   1016 AT TIME STEP      8, STRESS PERIOD     28
 UBDSV06 SAVING              RCH IN MODEL TEST_TRANS       PACKAGE TEST_TRANS      CONNECTED TO MODEL TEST_TRANS       PACKAGE RCHA             ON UNIT   1016 AT TIME STEP      8, STRESS PERIOD     28
 UBDSV06 SAVING              CHD IN MODEL TEST_TRANS       PACKAGE TEST_TRANS      CONNECTED TO MODEL TEST_TRANS       PACKAGE CHD              ON UNIT   1016 AT TIME STEP      8, STRESS PERIOD     28

 HEAD WILL BE SAVED ON UNIT 1017 AT END OF TIME STEP    8, STRESS PERIOD   28
 UBDSV1 SAVING           STO-SS ON UNIT   1016 AT TIME STEP      9, STRESS PERIOD     28
 UBDSV1 SAVING           STO-SY ON UNIT   1016 AT TIME STEP      9, STRESS PERIOD     28
 UBDSV1 SAVING     FLOW-JA-FACE ON UNIT   1016 AT TIME STEP      9, STRESS PERIOD     28
 UBDSV06 SAVING              RCH IN MODEL TEST_TRANS       PACKAGE TEST_TRANS      CONNECTED TO MODEL TEST_TRANS       PACKAGE RCHA             ON UNIT   1016 AT TIME STEP      9, STRESS PERIOD     28
 UBDSV06 SAVING              CHD IN MODEL TEST_TRANS       PACKAGE TEST_TRANS      CONNECTED TO MODEL TEST_TRANS       PACKAGE CHD              ON UNIT   1016 AT TIME STEP      9, STRESS PERIOD     28

 HEAD WILL BE SAVED ON UNIT 1017 AT END OF TIME STEP    9, STRESS PERIOD   28
 UBDSV1 SAVING           STO-SS ON UNIT   1016 AT TIME STEP     10, STRESS PERIOD     28
 UBDSV1 SAVING           STO-SY ON UNIT   1016 AT TIME STEP     10, STRESS PERIOD     28
 UBDSV1 SAVING     FLOW-JA-FACE ON UNIT   1016 AT TIME STEP     10, STRESS PERIOD     28
 UBDSV06 SAVING              RCH IN MODEL TEST_TRANS       PACKAGE TEST_TRANS      CONNECTED TO MODEL TEST_TRANS       PACKAGE RCHA             ON UNIT   1016 AT TIME STEP     10, STRESS PERIOD     28
 UBDSV06 SAVING              CHD IN MODEL TEST_TRANS       PACKAGE TEST_TRANS      CONNECTED TO MODEL TEST_TRANS       PACKAGE CHD              ON UNIT   1016 AT TIME STEP     10, STRESS PERIOD     28
1
  HEAD IN LAYER   1 AT END OF TIME STEP  10 IN STRESS PERIOD   28
  ---------------------------------------------------------------------------

            1           2           3           4           5           6           7           8           9          10
           11          12          13          14          15          16          17          18          19          20
           21          22          23          24          25          26          27          28          29          30
 ........................................................................................................................
   1    28.15       28.14       28.13       28.12       28.10       28.08       28.05       28.01       27.97       27.93    
        27.88       27.82       27.76       27.69       27.62       27.54       27.45       27.35       27.25       27.14    
        27.02       26.89       26.75       26.60       26.44       26.26       26.07       25.86       25.61       25.34    
   2    28.15       28.14       28.13       28.12       28.10       28.08       28.05       28.01       27.97       27.93    
        27.88       27.82       27.76       27.69       27.62       27.54       27.45       27.35       27.25       27.14    
        27.02       26.89       26.75       26.60       26.44       26.26       26.07       25.86       25.61       25.34    
   3    28.15       28.14       28.13       28.12       28.10       28.08       28.05       28.01       27.97       27.93    
        27.88       27.82       27.76       27.69       27.62       27.54       27.45       27.35       27.25       27.14    
        27.02       26.89       26.75       26.60       26.44       26.26       26.07       25.86       25.61       25.34    
   4    28.15       28.14       28.13       28.12       28.10       28.08       28.05       28.01       27.97       27.93    
        27.88       27.82       27.76       27.69       27.62       27.54       27.45       27.35       27.25       27.14    
        27.02       26.89       26.75       26.60       26.44       26.26       26.07       25.86       25.61       25.34    
   5    28.15       28.14       28.13       28.12       28.10       28.08       28.05       28.01       27.97       27.93    
        27.88       27.82       27.76       27.69       27.62       27.54       27.45       27.35       27.25       27.14    
        27.02       26.89       26.75       26.60       26.44       26.26       26.07       25.86       25.61       25.34    
   6    28.15       28.14       28.13       28.12       28.10       28.08       28.05       28.01       27.97       27.93    
        27.88       27.82       27.76       27.69       27.62       27.54       27.45       27.35       27.25       27.14    
        27.02       26.89       26.75       26.60       26.44       26.26       26.07       25.86       25.61       25.34    
   7    28.15       28.14       28.13       28.12       28.10       28.08       28.05       28.01       27.97       27.93    
        27.88       27.82       27.76       27.69       27.62       27.54       27.45       27.35       27.25       27.14    
        27.02       26.89       26.75       26.60       26.44       26.26       26.07       25.86       25.61       25.34    
   8    28.15       28.14       28.13       28.12       28.10       28.08       28.05       28.01       27.97       27.93    
        27.88       27.82       27.76       27.69       27.62       27.54       27.45       27.35       27.25       27.14    
        27.02       26.89       26.75       26.60       26.44       26.26       26.07       25.86       25.61       25.34    
   9    28.15       28.14       28.13       28.12       28.10       28.08       28.05       28.01       27.97       27.93    
        27.88       27.82       27.76       27.69       27.62       27.54       27.45       27.35       27.25       27.14    
        27.02       26.89       26.75       26.60       26.44       26.26       26.07       25.86       25.61       25.34    
  10    28.15       28.14       28.13       28.12       28.10       28.08       28.05       28.01       27.97       27.93    
        27.88       27.82       27.76       27.69       27.62       27.54       27.45       27.35       27.25       27.14    
        27.02       26.89       26.75       26.60       26.44       26.26       26.07       25.86       25.61       25.34    
  11    28.15       28.14       28.13       28.12       28.10       28.08       28.05       28.01       27.97       27.93    
        27.88       27.82       27.76       27.69       27.62       27.54       27.45       27.35       27.25       27.14    
        27.02       26.89       26.75       26.60       26.44       26.26       26.07       25.86       25.61       25.34    
  12    28.15       28.14       28.13       28.12       28.10       28.08       28.05       28.01       27.97       27.93    
        27.88       27.82       27.76       27.69       27.62       27.54       27.45       27.35       27.25       27.14    
        27.02       26.89       26.75       26.60       26.44       26.26       26.07       25.86       25.61       25.34    
  13    28.15       28.14       28.13       28.12       28.10       28.08       28.05       28.01       27.97       27.93    
        27.88       27.82       27.76       27.69       27.62       27.54       27.45       27.35       27.25       27.14    
        27.02       26.89       26.75       26.60       26.44       26.26       26.07       25.86       25.61       25.34    
  14    28.15       28.14       28.13       28.12       28.10       28.08       28.05       28.01       27.97       27.93    
        27.88       27.82       27.76       27.69       27.62       27.54       27.45       27.35       27.25       27.14    
        27.02       26.89       26.75       26.60       26.44       26.26       26.07       25.86       25.61       25.34    
  15    28.15       28.14       28.13       28.12       28.10       28.08       28.05       28.01       27.97       27.93    
        27.88       27.82       27.76       27.69       27.62       27.54       27.45       27.35       27.25       27.14    
        27.02       26.89       26.75       26.60       26.44       26.26       26.07       25.86       25.61       25.34    
  16    28.15       28.14       28.13       28.12       28.10       28.08       28.05       28.01       27.97       27.93    
        27.88       27.82       27.76       27.69       27.62       27.54       27.45       27.35       27.25       27.14    
        27.02       26.89       26.75       26.60       26.44       26.26       26.07       25.86       25.61       25.34    
  17    28.15       28.14       28.13       28.12       28.10       28.08       28.05       28.01       27.97       27.93    
        27.88       27.82       27.76       27.69       27.62       27.54       27.45       27.35       27.25       27.14    
        27.02       26.89       26.75       26.60       26.44       26.26       26.07       25.86       25.61       25.34    
  18    28.15       28.14       28.13       28.12       28.10       28.08       28.05       28.01       27.97       27.93    
        27.88       27.82       27.76       27.69       27.62       27.54       27.45       27.35       27.25       27.14    
        27.02       26.89       26.75       26.60       26.44       26.26       26.07       25.86       25.61       25.34    
  19    28.15       28.14       28.13       28.12       28.10       28.08       28.05       28.01       27.97       27.93    
        27.88       27.82       27.76       27.69       27.62       27.54       27.45       27.35       27.25       27.14    
        27.02       26.89       26.75       26.60       26.44       26.26       26.07       25.86       25.61       25.34    
  20    28.15       28.14       28.13       28.12       28.10       28.08       28.05       28.01       27.97       27.93    
        27.88       27.82       27.76       27.69       27.62       27.54       27.45       27.35       27.25       27.14    
        27.02       26.89       26.75       26.60       26.44       26.26       26.07       25.86       25.61       25.34    
  21    28.15       28.14       28.13       28.12       28.10       28.08       28.05       28.01       27.97       27.93    
        27.88       27.82       27.76       27.69       27.62       27.54       27.45       27.35       27.25       27.14    
        27.02       26.89       26.75       26.60       26.44       26.26       26.07       25.86       25.61       25.34    
  22    28.15       28.14       28.13       28.12       28.10       28.08       28.05       28.01       27.97       27.93    
        27.88       27.82       27.76       27.69       27.62       27.54       27.45       27.35       27.25       27.14    
        27.02       26.89       26.75       26.60       26.44       26.26       26.07       25.86       25.61       25.34    
  23    28.15       28.14       28.13       28.12       28.10       28.08       28.05       28.01       27.97       27.93    
        27.88       27.82       27.76       27.69       27.62       27.54       27.45       27.35       27.25       27.14    
        27.02       26.89       26.75       26.60       26.44       26.26       26.07       25.86       25.61       25.34    
  24    28.15       28.14       28.13       28.12       28.10       28.08       28.05       28.01       27.97       27.93    
        27.88       27.82       27.76       27.69       27.62       27.54       27.45       27.35       27.25       27.14    
        27.02       26.89       26.75       26.60       26.44       26.26       26.07       25.86       25.61       25.34    
  25    28.15       28.14       28.13       28.12       28.10       28.08       28.05       28.01       27.97       27.93    
        27.88       27.82       27.76       27.69       27.62       27.54       27.45       27.35       27.25       27.14    
        27.02       26.89       26.75       26.60       26.44       26.26       26.07       25.86       25.61       25.34    
  26    28.15       28.14       28.13       28.12       28.10       28.08       28.05       28.01       27.97       27.93    
        27.88       27.82       27.76       27.69       27.62       27.54       27.45       27.35       27.25       27.14    
        27.02       26.89       26.75       26.60       26.44       26.26       26.07       25.86       25.61       25.34    
  27    28.15       28.14       28.13       28.12       28.10       28.08       28.05       28.01       27.97       27.93    
        27.88       27.82       27.76       27.69       27.62       27.54       27.45       27.35       27.25       27.14    
        27.02       26.89       26.75       26.60       26.44       26.26       26.07       25.86       25.61       25.34    
  28    28.15       28.14       28.13       28.12       28.10       28.08       28.05       28.01       27.97       27.93    
        27.88       27.82       27.76       27.69       27.62       27.54       27.45       27.35       27.25       27.14    
        27.02       26.89       26.75       26.60       26.44       26.26       26.07       25.86       25.61       25.34    
  29    28.15       28.14       28.13       28.12       28.10       28.08       28.05       28.01       27.97       27.93    
        27.88       27.82       27.76       27.69       27.62       27.54       27.45       27.35       27.25       27.14    
        27.02       26.89       26.75       26.60       26.44       26.26       26.07       25.86       25.61       25.34    
  30    28.15       28.14       28.13       28.12       28.10       28.08       28.05       28.01       27.97       27.93    
        27.88       27.82       27.76       27.69       27.62       27.54       27.45       27.35       27.25       27.14    
        27.02       26.89       26.75       26.60       26.44       26.26       26.07       25.86       25.61       25.34    

 HEAD WILL BE SAVED ON UNIT 1017 AT END OF TIME STEP   10, STRESS PERIOD   28


  VOLUME BUDGET FOR ENTIRE MODEL AT END OF TIME STEP   10, STRESS PERIOD  28
  ---------------------------------------------------------------------------------------------------

     CUMULATIVE VOLUME      L**3       RATES FOR THIS TIME STEP      L**3/T          PACKAGE NAME    
     ------------------                 ------------------------                     ----------------

           IN:                                      IN:
           ---                                      ---
              STO-SS =          42.0225                STO-SS =       5.1739E-02     STORAGE         
              STO-SY =       26583.9834                STO-SY =          32.0180     STORAGE         
                 RCH =      138961.6992                   RCH =         143.0141     RCHA            
                 CHD =           0.0000                   CHD =           0.0000     CHD             

            TOTAL IN =      165587.7051              TOTAL IN =         175.0839

          OUT:                                     OUT:
          ----                                     ----
              STO-SS =          31.9388                STO-SS =           0.0000     STORAGE         
              STO-SY =       20452.1294                STO-SY =           0.0000     STORAGE         
                 RCH =           0.0000                   RCH =           0.0000     RCHA            
                 CHD =      145103.1314                   CHD =         175.0551     CHD             

           TOTAL OUT =      165587.1996             TOTAL OUT =         175.0551

            IN - OUT =           0.5055              IN - OUT =       2.8734E-02

 PERCENT DISCREPANCY =           0.00     PERCENT DISCREPANCY =           0.02




         TIME SUMMARY AT END OF TIME STEP   10 IN STRESS PERIOD   28
                    SECONDS     MINUTES      HOURS       DAYS        YEARS
                    -----------------------------------------------------------
   TIME STEP LENGTH 2.59200E+05  4320.0      72.000      3.0000     8.21355E-03
 STRESS PERIOD TIME 2.59200E+06  43200.      720.00      30.000     8.21355E-02
         TOTAL TIME 7.00704E+07 1.16784E+06  19464.      811.00      2.2204    

 OUTPUT CONTROL FOR STRESS PERIOD 29 IS REPEATED USING SETTINGS FROM A PREVIOUS STRESS PERIOD.


 STRESS PERIOD 29 IS TRANSIENT


                 RECHARGE =  0.1232880E-02
 UBDSV1 SAVING           STO-SS ON UNIT   1016 AT TIME STEP      1, STRESS PERIOD     29
 UBDSV1 SAVING           STO-SY ON UNIT   1016 AT TIME STEP      1, STRESS PERIOD     29
 UBDSV1 SAVING     FLOW-JA-FACE ON UNIT   1016 AT TIME STEP      1, STRESS PERIOD     29
 UBDSV06 SAVING              RCH IN MODEL TEST_TRANS       PACKAGE TEST_TRANS      CONNECTED TO MODEL TEST_TRANS       PACKAGE RCHA             ON UNIT   1016 AT TIME STEP      1, STRESS PERIOD     29
 UBDSV06 SAVING              CHD IN MODEL TEST_TRANS       PACKAGE TEST_TRANS      CONNECTED TO MODEL TEST_TRANS       PACKAGE CHD              ON UNIT   1016 AT TIME STEP      1, STRESS PERIOD     29
1
  HEAD IN LAYER   1 AT END OF TIME STEP   1 IN STRESS PERIOD   29
  ---------------------------------------------------------------------------

            1           2           3           4           5           6           7           8           9          10
           11          12          13          14          15          16          17          18          19          20
           21          22          23          24          25          26          27          28          29          30
 ........................................................................................................................
   1    28.14       28.13       28.12       28.11       28.09       28.06       28.03       28.00       27.96       27.91    
        27.86       27.81       27.75       27.68       27.60       27.52       27.44       27.34       27.24       27.13    
        27.02       26.89       26.76       26.61       26.46       26.31       26.15       26.00       25.88       25.81    
   2    28.14       28.13       28.12       28.11       28.09       28.06       28.03       28.00       27.96       27.91    
        27.86       27.81       27.75       27.68       27.60       27.52       27.44       27.34       27.24       27.13    
        27.02       26.89       26.76       26.61       26.46       26.31       26.15       26.00       25.88       25.81    
   3    28.14       28.13       28.12       28.11       28.09       28.06       28.03       28.00       27.96       27.91    
        27.86       27.81       27.75       27.68       27.60       27.52       27.44       27.34       27.24       27.13    
        27.02       26.89       26.76       26.61       26.46       26.31       26.15       26.00       25.88       25.81    
   4    28.14       28.13       28.12       28.11       28.09       28.06       28.03       28.00       27.96       27.91    
        27.86       27.81       27.75       27.68       27.60       27.52       27.44       27.34       27.24       27.13    
        27.02       26.89       26.76       26.61       26.46       26.31       26.15       26.00       25.88       25.81    
   5    28.14       28.13       28.12       28.11       28.09       28.06       28.03       28.00       27.96       27.91    
        27.86       27.81       27.75       27.68       27.60       27.52       27.44       27.34       27.24       27.13    
        27.02       26.89       26.76       26.61       26.46       26.31       26.15       26.00       25.88       25.81    
   6    28.14       28.13       28.12       28.11       28.09       28.06       28.03       28.00       27.96       27.91    
        27.86       27.81       27.75       27.68       27.60       27.52       27.44       27.34       27.24       27.13    
        27.02       26.89       26.76       26.61       26.46       26.31       26.15       26.00       25.88       25.81    
   7    28.14       28.13       28.12       28.11       28.09       28.06       28.03       28.00       27.96       27.91    
        27.86       27.81       27.75       27.68       27.60       27.52       27.44       27.34       27.24       27.13    
        27.02       26.89       26.76       26.61       26.46       26.31       26.15       26.00       25.88       25.81    
   8    28.14       28.13       28.12       28.11       28.09       28.06       28.03       28.00       27.96       27.91    
        27.86       27.81       27.75       27.68       27.60       27.52       27.44       27.34       27.24       27.13    
        27.02       26.89       26.76       26.61       26.46       26.31       26.15       26.00       25.88       25.81    
   9    28.14       28.13       28.12       28.11       28.09       28.06       28.03       28.00       27.96       27.91    
        27.86       27.81       27.75       27.68       27.60       27.52       27.44       27.34       27.24       27.13    
        27.02       26.89       26.76       26.61       26.46       26.31       26.15       26.00       25.88       25.81    
  10    28.14       28.13       28.12       28.11       28.09       28.06       28.03       28.00       27.96       27.91    
        27.86       27.81       27.75       27.68       27.60       27.52       27.44       27.34       27.24       27.13    
        27.02       26.89       26.76       26.61       26.46       26.31       26.15       26.00       25.88       25.81    
  11    28.14       28.13       28.12       28.11       28.09       28.06       28.03       28.00       27.96       27.91    
        27.86       27.81       27.75       27.68       27.60       27.52       27.44       27.34       27.24       27.13    
        27.02       26.89       26.76       26.61       26.46       26.31       26.15       26.00       25.88       25.81    
  12    28.14       28.13       28.12       28.11       28.09       28.06       28.03       28.00       27.96       27.91    
        27.86       27.81       27.75       27.68       27.60       27.52       27.44       27.34       27.24       27.13    
        27.02       26.89       26.76       26.61       26.46       26.31       26.15       26.00       25.88       25.81    
  13    28.14       28.13       28.12       28.11       28.09       28.06       28.03       28.00       27.96       27.91    
        27.86       27.81       27.75       27.68       27.60       27.52       27.44       27.34       27.24       27.13    
        27.02       26.89       26.76       26.61       26.46       26.31       26.15       26.00       25.88       25.81    
  14    28.14       28.13       28.12       28.11       28.09       28.06       28.03       28.00       27.96       27.91    
        27.86       27.81       27.75       27.68       27.60       27.52       27.44       27.34       27.24       27.13    
        27.02       26.89       26.76       26.61       26.46       26.31       26.15       26.00       25.88       25.81    
  15    28.14       28.13       28.12       28.11       28.09       28.06       28.03       28.00       27.96       27.91    
        27.86       27.81       27.75       27.68       27.60       27.52       27.44       27.34       27.24       27.13    
        27.02       26.89       26.76       26.61       26.46       26.31       26.15       26.00       25.88       25.81    
  16    28.14       28.13       28.12       28.11       28.09       28.06       28.03       28.00       27.96       27.91    
        27.86       27.81       27.75       27.68       27.60       27.52       27.44       27.34       27.24       27.13    
        27.02       26.89       26.76       26.61       26.46       26.31       26.15       26.00       25.88       25.81    
  17    28.14       28.13       28.12       28.11       28.09       28.06       28.03       28.00       27.96       27.91    
        27.86       27.81       27.75       27.68       27.60       27.52       27.44       27.34       27.24       27.13    
        27.02       26.89       26.76       26.61       26.46       26.31       26.15       26.00       25.88       25.81    
  18    28.14       28.13       28.12       28.11       28.09       28.06       28.03       28.00       27.96       27.91    
        27.86       27.81       27.75       27.68       27.60       27.52       27.44       27.34       27.24       27.13    
        27.02       26.89       26.76       26.61       26.46       26.31       26.15       26.00       25.88       25.81    
  19    28.14       28.13       28.12       28.11       28.09       28.06       28.03       28.00       27.96       27.91    
        27.86       27.81       27.75       27.68       27.60       27.52       27.44       27.34       27.24       27.13    
        27.02       26.89       26.76       26.61       26.46       26.31       26.15       26.00       25.88       25.81    
  20    28.14       28.13       28.12       28.11       28.09       28.06       28.03       28.00       27.96       27.91    
        27.86       27.81       27.75       27.68       27.60       27.52       27.44       27.34       27.24       27.13    
        27.02       26.89       26.76       26.61       26.46       26.31       26.15       26.00       25.88       25.81    
  21    28.14       28.13       28.12       28.11       28.09       28.06       28.03       28.00       27.96       27.91    
        27.86       27.81       27.75       27.68       27.60       27.52       27.44       27.34       27.24       27.13    
        27.02       26.89       26.76       26.61       26.46       26.31       26.15       26.00       25.88       25.81    
  22    28.14       28.13       28.12       28.11       28.09       28.06       28.03       28.00       27.96       27.91    
        27.86       27.81       27.75       27.68       27.60       27.52       27.44       27.34       27.24       27.13    
        27.02       26.89       26.76       26.61       26.46       26.31       26.15       26.00       25.88       25.81    
  23    28.14       28.13       28.12       28.11       28.09       28.06       28.03       28.00       27.96       27.91    
        27.86       27.81       27.75       27.68       27.60       27.52       27.44       27.34       27.24       27.13    
        27.02       26.89       26.76       26.61       26.46       26.31       26.15       26.00       25.88       25.81    
  24    28.14       28.13       28.12       28.11       28.09       28.06       28.03       28.00       27.96       27.91    
        27.86       27.81       27.75       27.68       27.60       27.52       27.44       27.34       27.24       27.13    
        27.02       26.89       26.76       26.61       26.46       26.31       26.15       26.00       25.88       25.81    
  25    28.14       28.13       28.12       28.11       28.09       28.06       28.03       28.00       27.96       27.91    
        27.86       27.81       27.75       27.68       27.60       27.52       27.44       27.34       27.24       27.13    
        27.02       26.89       26.76       26.61       26.46       26.31       26.15       26.00       25.88       25.81    
  26    28.14       28.13       28.12       28.11       28.09       28.06       28.03       28.00       27.96       27.91    
        27.86       27.81       27.75       27.68       27.60       27.52       27.44       27.34       27.24       27.13    
        27.02       26.89       26.76       26.61       26.46       26.31       26.15       26.00       25.88       25.81    
  27    28.14       28.13       28.12       28.11       28.09       28.06       28.03       28.00       27.96       27.91    
        27.86       27.81       27.75       27.68       27.60       27.52       27.44       27.34       27.24       27.13    
        27.02       26.89       26.76       26.61       26.46       26.31       26.15       26.00       25.88       25.81    
  28    28.14       28.13       28.12       28.11       28.09       28.06       28.03       28.00       27.96       27.91    
        27.86       27.81       27.75       27.68       27.60       27.52       27.44       27.34       27.24       27.13    
        27.02       26.89       26.76       26.61       26.46       26.31       26.15       26.00       25.88       25.81    
  29    28.14       28.13       28.12       28.11       28.09       28.06       28.03       28.00       27.96       27.91    
        27.86       27.81       27.75       27.68       27.60       27.52       27.44       27.34       27.24       27.13    
        27.02       26.89       26.76       26.61       26.46       26.31       26.15       26.00       25.88       25.81    
  30    28.14       28.13       28.12       28.11       28.09       28.06       28.03       28.00       27.96       27.91    
        27.86       27.81       27.75       27.68       27.60       27.52       27.44       27.34       27.24       27.13    
        27.02       26.89       26.76       26.61       26.46       26.31       26.15       26.00       25.88       25.81    

 HEAD WILL BE SAVED ON UNIT 1017 AT END OF TIME STEP    1, STRESS PERIOD   29



         TIME SUMMARY AT END OF TIME STEP    1 IN STRESS PERIOD   29
                    SECONDS     MINUTES      HOURS       DAYS        YEARS
                    -----------------------------------------------------------
   TIME STEP LENGTH 2.59200E+05  4320.0      72.000      3.0000     8.21355E-03
 STRESS PERIOD TIME 2.59200E+05  4320.0      72.000      3.0000     8.21355E-03
         TOTAL TIME 7.03296E+07 1.17216E+06  19536.      814.00      2.2286    
 UBDSV1 SAVING           STO-SS ON UNIT   1016 AT TIME STEP      2, STRESS PERIOD     29
 UBDSV1 SAVING           STO-SY ON UNIT   1016 AT TIME STEP      2, STRESS PERIOD     29
 UBDSV1 SAVING     FLOW-JA-FACE ON UNIT   1016 AT TIME STEP      2, STRESS PERIOD     29
 UBDSV06 SAVING              RCH IN MODEL TEST_TRANS       PACKAGE TEST_TRANS      CONNECTED TO MODEL TEST_TRANS       PACKAGE RCHA             ON UNIT   1016 AT TIME STEP      2, STRESS PERIOD     29
 UBDSV06 SAVING              CHD IN MODEL TEST_TRANS       PACKAGE TEST_TRANS      CONNECTED TO MODEL TEST_TRANS       PACKAGE CHD              ON UNIT   1016 AT TIME STEP      2, STRESS PERIOD     29

 HEAD WILL BE SAVED ON UNIT 1017 AT END OF TIME STEP    2, STRESS PERIOD   29
 UBDSV1 SAVING           STO-SS ON UNIT   1016 AT TIME STEP      3, STRESS PERIOD     29
 UBDSV1 SAVING           STO-SY ON UNIT   1016 AT TIME STEP      3, STRESS PERIOD     29
 UBDSV1 SAVING     FLOW-JA-FACE ON UNIT   1016 AT TIME STEP      3, STRESS PERIOD     29
 UBDSV06 SAVING              RCH IN MODEL TEST_TRANS       PACKAGE TEST_TRANS      CONNECTED TO MODEL TEST_TRANS       PACKAGE RCHA             ON UNIT   1016 AT TIME STEP      3, STRESS PERIOD     29
 UBDSV06 SAVING              CHD IN MODEL TEST_TRANS       PACKAGE TEST_TRANS      CONNECTED TO MODEL TEST_TRANS       PACKAGE CHD              ON UNIT   1016 AT TIME STEP      3, STRESS PERIOD     29

 HEAD WILL BE SAVED ON UNIT 1017 AT END OF TIME STEP    3, STRESS PERIOD   29
 UBDSV1 SAVING           STO-SS ON UNIT   1016 AT TIME STEP      4, STRESS PERIOD     29
 UBDSV1 SAVING           STO-SY ON UNIT   1016 AT TIME STEP      4, STRESS PERIOD     29
 UBDSV1 SAVING     FLOW-JA-FACE ON UNIT   1016 AT TIME STEP      4, STRESS PERIOD     29
 UBDSV06 SAVING              RCH IN MODEL TEST_TRANS       PACKAGE TEST_TRANS      CONNECTED TO MODEL TEST_TRANS       PACKAGE RCHA             ON UNIT   1016 AT TIME STEP      4, STRESS PERIOD     29
 UBDSV06 SAVING              CHD IN MODEL TEST_TRANS       PACKAGE TEST_TRANS      CONNECTED TO MODEL TEST_TRANS       PACKAGE CHD              ON UNIT   1016 AT TIME STEP      4, STRESS PERIOD     29

 HEAD WILL BE SAVED ON UNIT 1017 AT END OF TIME STEP    4, STRESS PERIOD   29
 UBDSV1 SAVING           STO-SS ON UNIT   1016 AT TIME STEP      5, STRESS PERIOD     29
 UBDSV1 SAVING           STO-SY ON UNIT   1016 AT TIME STEP      5, STRESS PERIOD     29
 UBDSV1 SAVING     FLOW-JA-FACE ON UNIT   1016 AT TIME STEP      5, STRESS PERIOD     29
 UBDSV06 SAVING              RCH IN MODEL TEST_TRANS       PACKAGE TEST_TRANS      CONNECTED TO MODEL TEST_TRANS       PACKAGE RCHA             ON UNIT   1016 AT TIME STEP      5, STRESS PERIOD     29
 UBDSV06 SAVING              CHD IN MODEL TEST_TRANS       PACKAGE TEST_TRANS      CONNECTED TO MODEL TEST_TRANS       PACKAGE CHD              ON UNIT   1016 AT TIME STEP      5, STRESS PERIOD     29

 HEAD WILL BE SAVED ON UNIT 1017 AT END OF TIME STEP    5, STRESS PERIOD   29
 UBDSV1 SAVING           STO-SS ON UNIT   1016 AT TIME STEP      6, STRESS PERIOD     29
 UBDSV1 SAVING           STO-SY ON UNIT   1016 AT TIME STEP      6, STRESS PERIOD     29
 UBDSV1 SAVING     FLOW-JA-FACE ON UNIT   1016 AT TIME STEP      6, STRESS PERIOD     29
 UBDSV06 SAVING              RCH IN MODEL TEST_TRANS       PACKAGE TEST_TRANS      CONNECTED TO MODEL TEST_TRANS       PACKAGE RCHA             ON UNIT   1016 AT TIME STEP      6, STRESS PERIOD     29
 UBDSV06 SAVING              CHD IN MODEL TEST_TRANS       PACKAGE TEST_TRANS      CONNECTED TO MODEL TEST_TRANS       PACKAGE CHD              ON UNIT   1016 AT TIME STEP      6, STRESS PERIOD     29

 HEAD WILL BE SAVED ON UNIT 1017 AT END OF TIME STEP    6, STRESS PERIOD   29
 UBDSV1 SAVING           STO-SS ON UNIT   1016 AT TIME STEP      7, STRESS PERIOD     29
 UBDSV1 SAVING           STO-SY ON UNIT   1016 AT TIME STEP      7, STRESS PERIOD     29
 UBDSV1 SAVING     FLOW-JA-FACE ON UNIT   1016 AT TIME STEP      7, STRESS PERIOD     29
 UBDSV06 SAVING              RCH IN MODEL TEST_TRANS       PACKAGE TEST_TRANS      CONNECTED TO MODEL TEST_TRANS       PACKAGE RCHA             ON UNIT   1016 AT TIME STEP      7, STRESS PERIOD     29
 UBDSV06 SAVING              CHD IN MODEL TEST_TRANS       PACKAGE TEST_TRANS      CONNECTED TO MODEL TEST_TRANS       PACKAGE CHD              ON UNIT   1016 AT TIME STEP      7, STRESS PERIOD     29

 HEAD WILL BE SAVED ON UNIT 1017 AT END OF TIME STEP    7, STRESS PERIOD   29
 UBDSV1 SAVING           STO-SS ON UNIT   1016 AT TIME STEP      8, STRESS PERIOD     29
 UBDSV1 SAVING           STO-SY ON UNIT   1016 AT TIME STEP      8, STRESS PERIOD     29
 UBDSV1 SAVING     FLOW-JA-FACE ON UNIT   1016 AT TIME STEP      8, STRESS PERIOD     29
 UBDSV06 SAVING              RCH IN MODEL TEST_TRANS       PACKAGE TEST_TRANS      CONNECTED TO MODEL TEST_TRANS       PACKAGE RCHA             ON UNIT   1016 AT TIME STEP      8, STRESS PERIOD     29
 UBDSV06 SAVING              CHD IN MODEL TEST_TRANS       PACKAGE TEST_TRANS      CONNECTED TO MODEL TEST_TRANS       PACKAGE CHD              ON UNIT   1016 AT TIME STEP      8, STRESS PERIOD     29

 HEAD WILL BE SAVED ON UNIT 1017 AT END OF TIME STEP    8, STRESS PERIOD   29
 UBDSV1 SAVING           STO-SS ON UNIT   1016 AT TIME STEP      9, STRESS PERIOD     29
 UBDSV1 SAVING           STO-SY ON UNIT   1016 AT TIME STEP      9, STRESS PERIOD     29
 UBDSV1 SAVING     FLOW-JA-FACE ON UNIT   1016 AT TIME STEP      9, STRESS PERIOD     29
 UBDSV06 SAVING              RCH IN MODEL TEST_TRANS       PACKAGE TEST_TRANS      CONNECTED TO MODEL TEST_TRANS       PACKAGE RCHA             ON UNIT   1016 AT TIME STEP      9, STRESS PERIOD     29
 UBDSV06 SAVING              CHD IN MODEL TEST_TRANS       PACKAGE TEST_TRANS      CONNECTED TO MODEL TEST_TRANS       PACKAGE CHD              ON UNIT   1016 AT TIME STEP      9, STRESS PERIOD     29

 HEAD WILL BE SAVED ON UNIT 1017 AT END OF TIME STEP    9, STRESS PERIOD   29
 UBDSV1 SAVING           STO-SS ON UNIT   1016 AT TIME STEP     10, STRESS PERIOD     29
 UBDSV1 SAVING           STO-SY ON UNIT   1016 AT TIME STEP     10, STRESS PERIOD     29
 UBDSV1 SAVING     FLOW-JA-FACE ON UNIT   1016 AT TIME STEP     10, STRESS PERIOD     29
 UBDSV06 SAVING              RCH IN MODEL TEST_TRANS       PACKAGE TEST_TRANS      CONNECTED TO MODEL TEST_TRANS       PACKAGE RCHA             ON UNIT   1016 AT TIME STEP     10, STRESS PERIOD     29
 UBDSV06 SAVING              CHD IN MODEL TEST_TRANS       PACKAGE TEST_TRANS      CONNECTED TO MODEL TEST_TRANS       PACKAGE CHD              ON UNIT   1016 AT TIME STEP     10, STRESS PERIOD     29
1
  HEAD IN LAYER   1 AT END OF TIME STEP  10 IN STRESS PERIOD   29
  ---------------------------------------------------------------------------

            1           2           3           4           5           6           7           8           9          10
           11          12          13          14          15          16          17          18          19          20
           21          22          23          24          25          26          27          28          29          30
 ........................................................................................................................
   1    28.02       28.02       28.01       28.00       27.98       27.96       27.93       27.90       27.86       27.82    
        27.77       27.72       27.66       27.60       27.54       27.47       27.39       27.31       27.22       27.13    
        27.04       26.93       26.82       26.70       26.58       26.45       26.31       26.16       25.99       25.81    
   2    28.02       28.02       28.01       28.00       27.98       27.96       27.93       27.90       27.86       27.82    
        27.77       27.72       27.66       27.60       27.54       27.47       27.39       27.31       27.22       27.13    
        27.04       26.93       26.82       26.70       26.58       26.45       26.31       26.16       25.99       25.81    
   3    28.02       28.02       28.01       28.00       27.98       27.96       27.93       27.90       27.86       27.82    
        27.77       27.72       27.66       27.60       27.54       27.47       27.39       27.31       27.22       27.13    
        27.04       26.93       26.82       26.70       26.58       26.45       26.31       26.16       25.99       25.81    
   4    28.02       28.02       28.01       28.00       27.98       27.96       27.93       27.90       27.86       27.82    
        27.77       27.72       27.67       27.60       27.54       27.47       27.39       27.31       27.22       27.13    
        27.04       26.93       26.82       26.70       26.58       26.45       26.31       26.16       25.99       25.81    
   5    28.02       28.02       28.01       28.00       27.98       27.96       27.93       27.90       27.86       27.82    
        27.77       27.72       27.67       27.60       27.54       27.47       27.39       27.31       27.22       27.13    
        27.04       26.93       26.82       26.70       26.58       26.45       26.31       26.16       25.99       25.81    
   6    28.02       28.02       28.01       28.00       27.98       27.96       27.93       27.90       27.86       27.82    
        27.77       27.72       27.67       27.60       27.54       27.47       27.39       27.31       27.22       27.13    
        27.04       26.93       26.82       26.70       26.58       26.45       26.31       26.16       25.99       25.81    
   7    28.02       28.02       28.01       28.00       27.98       27.96       27.93       27.90       27.86       27.82    
        27.77       27.72       27.67       27.60       27.54       27.47       27.39       27.31       27.22       27.13    
        27.04       26.93       26.82       26.70       26.58       26.45       26.31       26.16       25.99       25.81    
   8    28.02       28.02       28.01       28.00       27.98       27.96       27.93       27.90       27.86       27.82    
        27.77       27.72       27.67       27.60       27.54       27.47       27.39       27.31       27.22       27.13    
        27.04       26.93       26.82       26.70       26.58       26.45       26.31       26.16       25.99       25.81    
   9    28.02       28.02       28.01       28.00       27.98       27.96       27.93       27.90       27.86       27.82    
        27.77       27.72       27.67       27.60       27.54       27.47       27.39       27.31       27.22       27.13    
        27.04       26.93       26.82       26.70       26.58       26.45       26.31       26.16       25.99       25.81    
  10    28.02       28.02       28.01       28.00       27.98       27.96       27.93       27.90       27.86       27.82    
        27.77       27.72       27.67       27.60       27.54       27.47       27.39       27.31       27.22       27.13    
        27.04       26.93       26.82       26.70       26.58       26.45       26.31       26.16       25.99       25.81    
  11    28.02       28.02       28.01       28.00       27.98       27.96       27.93       27.90       27.86       27.82    
        27.77       27.72       27.67       27.60       27.54       27.47       27.39       27.31       27.22       27.13    
        27.04       26.93       26.82       26.70       26.58       26.45       26.31       26.16       25.99       25.81    
  12    28.02       28.02       28.01       28.00       27.98       27.96       27.93       27.90       27.86       27.82    
        27.77       27.72       27.67       27.60       27.54       27.47       27.39       27.31       27.22       27.13    
        27.04       26.93       26.82       26.70       26.58       26.45       26.31       26.16       25.99       25.81    
  13    28.02       28.02       28.01       28.00       27.98       27.96       27.93       27.90       27.86       27.82    
        27.77       27.72       27.67       27.60       27.54       27.47       27.39       27.31       27.22       27.13    
        27.04       26.93       26.82       26.70       26.58       26.45       26.31       26.16       25.99       25.81    
  14    28.02       28.02       28.01       28.00       27.98       27.96       27.93       27.90       27.86       27.82    
        27.77       27.72       27.67       27.60       27.54       27.47       27.39       27.31       27.22       27.13    
        27.04       26.93       26.82       26.70       26.58       26.45       26.31       26.16       25.99       25.81    
  15    28.02       28.02       28.01       28.00       27.98       27.96       27.93       27.90       27.86       27.82    
        27.77       27.72       27.67       27.60       27.54       27.47       27.39       27.31       27.22       27.13    
        27.04       26.93       26.82       26.70       26.58       26.45       26.31       26.16       25.99       25.81    
  16    28.02       28.02       28.01       28.00       27.98       27.96       27.93       27.90       27.86       27.82    
        27.77       27.72       27.67       27.60       27.54       27.47       27.39       27.31       27.22       27.13    
        27.04       26.93       26.82       26.70       26.58       26.45       26.31       26.16       25.99       25.81    
  17    28.02       28.02       28.01       28.00       27.98       27.96       27.93       27.90       27.86       27.82    
        27.77       27.72       27.67       27.60       27.54       27.47       27.39       27.31       27.22       27.13    
        27.04       26.93       26.82       26.70       26.58       26.45       26.31       26.16       25.99       25.81    
  18    28.02       28.02       28.01       28.00       27.98       27.96       27.93       27.90       27.86       27.82    
        27.77       27.72       27.67       27.60       27.54       27.47       27.39       27.31       27.22       27.13    
        27.04       26.93       26.82       26.70       26.58       26.45       26.31       26.16       25.99       25.81    
  19    28.02       28.02       28.01       28.00       27.98       27.96       27.93       27.90       27.86       27.82    
        27.77       27.72       27.67       27.60       27.54       27.47       27.39       27.31       27.22       27.13    
        27.04       26.93       26.82       26.70       26.58       26.45       26.31       26.16       25.99       25.81    
  20    28.02       28.02       28.01       28.00       27.98       27.96       27.93       27.90       27.86       27.82    
        27.77       27.72       27.67       27.60       27.54       27.47       27.39       27.31       27.22       27.13    
        27.04       26.93       26.82       26.70       26.58       26.45       26.31       26.16       25.99       25.81    
  21    28.02       28.02       28.01       28.00       27.98       27.96       27.93       27.90       27.86       27.82    
        27.77       27.72       27.67       27.60       27.54       27.47       27.39       27.31       27.22       27.13    
        27.04       26.93       26.82       26.70       26.58       26.45       26.31       26.16       25.99       25.81    
  22    28.02       28.02       28.01       28.00       27.98       27.96       27.93       27.90       27.86       27.82    
        27.77       27.72       27.67       27.60       27.54       27.47       27.39       27.31       27.22       27.13    
        27.04       26.93       26.82       26.70       26.58       26.45       26.31       26.16       25.99       25.81    
  23    28.02       28.02       28.01       28.00       27.98       27.96       27.93       27.90       27.86       27.82    
        27.77       27.72       27.67       27.60       27.54       27.47       27.39       27.31       27.22       27.13    
        27.04       26.93       26.82       26.70       26.58       26.45       26.31       26.16       25.99       25.81    
  24    28.02       28.02       28.01       28.00       27.98       27.96       27.93       27.90       27.86       27.82    
        27.77       27.72       27.67       27.60       27.54       27.47       27.39       27.31       27.22       27.13    
        27.04       26.93       26.82       26.70       26.58       26.45       26.31       26.16       25.99       25.81    
  25    28.02       28.02       28.01       28.00       27.98       27.96       27.93       27.90       27.86       27.82    
        27.77       27.72       27.67       27.60       27.54       27.47       27.39       27.31       27.22       27.13    
        27.04       26.93       26.82       26.70       26.58       26.45       26.31       26.16       25.99       25.81    
  26    28.02       28.02       28.01       28.00       27.98       27.96       27.93       27.90       27.86       27.82    
        27.77       27.72       27.67       27.60       27.54       27.47       27.39       27.31       27.22       27.13    
        27.04       26.93       26.82       26.70       26.58       26.45       26.31       26.16       25.99       25.81    
  27    28.02       28.02       28.01       28.00       27.98       27.96       27.93       27.90       27.86       27.82    
        27.77       27.72       27.67       27.60       27.54       27.47       27.39       27.31       27.22       27.13    
        27.04       26.93       26.82       26.70       26.58       26.45       26.31       26.16       25.99       25.81    
  28    28.02       28.02       28.01       28.00       27.98       27.96       27.93       27.90       27.86       27.82    
        27.77       27.72       27.67       27.60       27.54       27.47       27.39       27.31       27.22       27.13    
        27.04       26.93       26.82       26.70       26.58       26.45       26.31       26.16       25.99       25.81    
  29    28.02       28.02       28.01       28.00       27.98       27.96       27.93       27.90       27.86       27.82    
        27.77       27.72       27.67       27.60       27.54       27.47       27.39       27.31       27.22       27.13    
        27.04       26.93       26.82       26.70       26.58       26.45       26.31       26.16       25.99       25.81    
  30    28.02       28.02       28.01       28.00       27.98       27.96       27.93       27.90       27.86       27.82    
        27.77       27.72       27.67       27.60       27.54       27.47       27.39       27.31       27.22       27.13    
        27.04       26.93       26.82       26.70       26.58       26.45       26.31       26.16       25.99       25.81    

 HEAD WILL BE SAVED ON UNIT 1017 AT END OF TIME STEP   10, STRESS PERIOD   29


  VOLUME BUDGET FOR ENTIRE MODEL AT END OF TIME STEP   10, STRESS PERIOD  29
  ---------------------------------------------------------------------------------------------------

     CUMULATIVE VOLUME      L**3       RATES FOR THIS TIME STEP      L**3/T          PACKAGE NAME    
     ------------------                 ------------------------                     ----------------

           IN:                                      IN:
           ---                                      ---
              STO-SS =          43.8559                STO-SS =       4.7972E-02     STORAGE         
              STO-SY =       27704.2329                STO-SY =          29.3449     STORAGE         
                 RCH =      142179.5160                   RCH =         107.2606     RCHA            
                 CHD =           0.0000                   CHD =           0.0000     CHD             

            TOTAL IN =      169927.6048              TOTAL IN =         136.6535

          OUT:                                     OUT:
          ----                                     ----
              STO-SS =          33.2386                STO-SS =       4.4718E-03     STORAGE         
              STO-SY =       21336.4629                STO-SY =           2.9786     STORAGE         
                 RCH =           0.0000                   RCH =           0.0000     RCHA            
                 CHD =      148557.4429                   CHD =         133.6812     CHD             

           TOTAL OUT =      169927.1444             TOTAL OUT =         136.6643

            IN - OUT =           0.4604              IN - OUT =      -1.0812E-02

 PERCENT DISCREPANCY =           0.00     PERCENT DISCREPANCY =          -0.01




         TIME SUMMARY AT END OF TIME STEP   10 IN STRESS PERIOD   29
                    SECONDS     MINUTES      HOURS       DAYS        YEARS
                    -----------------------------------------------------------
   TIME STEP LENGTH 2.59200E+05  4320.0      72.000      3.0000     8.21355E-03
 STRESS PERIOD TIME 2.59200E+06  43200.      720.00      30.000     8.21355E-02
         TOTAL TIME 7.26624E+07 1.21104E+06  20184.      841.00      2.3025    

 OUTPUT CONTROL FOR STRESS PERIOD 30 IS REPEATED USING SETTINGS FROM A PREVIOUS STRESS PERIOD.


 STRESS PERIOD 30 IS TRANSIENT


                 RECHARGE =  0.8219178E-03
 UBDSV1 SAVING           STO-SS ON UNIT   1016 AT TIME STEP      1, STRESS PERIOD     30
 UBDSV1 SAVING           STO-SY ON UNIT   1016 AT TIME STEP      1, STRESS PERIOD     30
 UBDSV1 SAVING     FLOW-JA-FACE ON UNIT   1016 AT TIME STEP      1, STRESS PERIOD     30
 UBDSV06 SAVING              RCH IN MODEL TEST_TRANS       PACKAGE TEST_TRANS      CONNECTED TO MODEL TEST_TRANS       PACKAGE RCHA             ON UNIT   1016 AT TIME STEP      1, STRESS PERIOD     30
 UBDSV06 SAVING              CHD IN MODEL TEST_TRANS       PACKAGE TEST_TRANS      CONNECTED TO MODEL TEST_TRANS       PACKAGE CHD              ON UNIT   1016 AT TIME STEP      1, STRESS PERIOD     30
1
  HEAD IN LAYER   1 AT END OF TIME STEP   1 IN STRESS PERIOD   30
  ---------------------------------------------------------------------------

            1           2           3           4           5           6           7           8           9          10
           11          12          13          14          15          16          17          18          19          20
           21          22          23          24          25          26          27          28          29          30
 ........................................................................................................................
   1    28.01       28.00       27.99       27.98       27.96       27.94       27.91       27.88       27.84       27.80    
        27.76       27.71       27.65       27.59       27.53       27.46       27.38       27.30       27.22       27.13    
        27.03       26.93       26.82       26.70       26.58       26.45       26.31       26.17       26.02       25.87    
   2    28.01       28.00       27.99       27.98       27.96       27.94       27.91       27.88       27.84       27.80    
        27.76       27.71       27.65       27.59       27.53       27.46       27.38       27.30       27.22       27.13    
        27.03       26.93       26.82       26.70       26.58       26.45       26.31       26.17       26.02       25.87    
   3    28.01       28.00       27.99       27.98       27.96       27.94       27.91       27.88       27.84       27.80    
        27.76       27.71       27.65       27.59       27.53       27.46       27.38       27.30       27.22       27.13    
        27.03       26.93       26.82       26.70       26.58       26.45       26.31       26.17       26.02       25.87    
   4    28.01       28.00       27.99       27.98       27.96       27.94       27.91       27.88       27.84       27.80    
        27.76       27.71       27.65       27.59       27.53       27.46       27.38       27.30       27.22       27.13    
        27.03       26.93       26.82       26.70       26.58       26.45       26.31       26.17       26.02       25.87    
   5    28.01       28.00       27.99       27.98       27.96       27.94       27.91       27.88       27.84       27.80    
        27.76       27.71       27.65       27.59       27.53       27.46       27.38       27.30       27.22       27.13    
        27.03       26.93       26.82       26.70       26.58       26.45       26.31       26.17       26.02       25.87    
   6    28.01       28.00       27.99       27.98       27.96       27.94       27.91       27.88       27.84       27.80    
        27.76       27.71       27.65       27.59       27.53       27.46       27.38       27.30       27.22       27.13    
        27.03       26.93       26.82       26.70       26.58       26.45       26.31       26.17       26.02       25.87    
   7    28.01       28.00       27.99       27.98       27.96       27.94       27.91       27.88       27.84       27.80    
        27.76       27.71       27.65       27.59       27.53       27.46       27.38       27.30       27.22       27.13    
        27.03       26.93       26.82       26.70       26.58       26.45       26.31       26.17       26.02       25.87    
   8    28.01       28.00       27.99       27.98       27.96       27.94       27.91       27.88       27.84       27.80    
        27.76       27.71       27.65       27.59       27.53       27.46       27.38       27.30       27.22       27.13    
        27.03       26.93       26.82       26.70       26.58       26.45       26.31       26.17       26.02       25.87    
   9    28.01       28.00       27.99       27.98       27.96       27.94       27.91       27.88       27.84       27.80    
        27.76       27.71       27.65       27.59       27.53       27.46       27.38       27.30       27.22       27.13    
        27.03       26.93       26.82       26.70       26.58       26.45       26.31       26.17       26.02       25.87    
  10    28.01       28.00       27.99       27.98       27.96       27.94       27.91       27.88       27.84       27.80    
        27.76       27.71       27.65       27.59       27.53       27.46       27.38       27.30       27.22       27.13    
        27.03       26.93       26.82       26.70       26.58       26.45       26.31       26.17       26.02       25.87    
  11    28.01       28.00       27.99       27.98       27.96       27.94       27.91       27.88       27.84       27.80    
        27.76       27.71       27.65       27.59       27.53       27.46       27.38       27.30       27.22       27.13    
        27.03       26.93       26.82       26.70       26.58       26.45       26.31       26.17       26.02       25.87    
  12    28.01       28.00       27.99       27.98       27.96       27.94       27.91       27.88       27.84       27.80    
        27.76       27.71       27.65       27.59       27.53       27.46       27.38       27.30       27.22       27.13    
        27.03       26.93       26.82       26.70       26.58       26.45       26.31       26.17       26.02       25.87    
  13    28.01       28.00       27.99       27.98       27.96       27.94       27.91       27.88       27.84       27.80    
        27.76       27.71       27.65       27.59       27.53       27.46       27.38       27.30       27.22       27.13    
        27.03       26.93       26.82       26.70       26.58       26.45       26.31       26.17       26.02       25.87    
  14    28.01       28.00       27.99       27.98       27.96       27.94       27.91       27.88       27.84       27.80    
        27.76       27.71       27.65       27.59       27.53       27.46       27.38       27.30       27.22       27.13    
        27.03       26.93       26.82       26.70       26.58       26.45       26.31       26.17       26.02       25.87    
  15    28.01       28.00       27.99       27.98       27.96       27.94       27.91       27.88       27.84       27.80    
        27.76       27.71       27.65       27.59       27.53       27.46       27.38       27.30       27.22       27.13    
        27.03       26.93       26.82       26.70       26.58       26.45       26.31       26.17       26.02       25.87    
  16    28.01       28.00       27.99       27.98       27.96       27.94       27.91       27.88       27.84       27.80    
        27.76       27.71       27.65       27.59       27.53       27.46       27.38       27.30       27.22       27.13    
        27.03       26.93       26.82       26.70       26.58       26.45       26.31       26.17       26.02       25.87    
  17    28.01       28.00       27.99       27.98       27.96       27.94       27.91       27.88       27.84       27.80    
        27.76       27.71       27.65       27.59       27.53       27.46       27.38       27.30       27.22       27.13    
        27.03       26.93       26.82       26.70       26.58       26.45       26.31       26.17       26.02       25.87    
  18    28.01       28.00       27.99       27.98       27.96       27.94       27.91       27.88       27.84       27.80    
        27.76       27.71       27.65       27.59       27.53       27.46       27.38       27.30       27.22       27.13    
        27.03       26.93       26.82       26.70       26.58       26.45       26.31       26.17       26.02       25.87    
  19    28.01       28.00       27.99       27.98       27.96       27.94       27.91       27.88       27.84       27.80    
        27.76       27.71       27.65       27.59       27.53       27.46       27.38       27.30       27.22       27.13    
        27.03       26.93       26.82       26.70       26.58       26.45       26.31       26.17       26.02       25.87    
  20    28.01       28.00       27.99       27.98       27.96       27.94       27.91       27.88       27.84       27.80    
        27.76       27.71       27.65       27.59       27.53       27.46       27.38       27.30       27.22       27.13    
        27.03       26.93       26.82       26.70       26.58       26.45       26.31       26.17       26.02       25.87    
  21    28.01       28.00       27.99       27.98       27.96       27.94       27.91       27.88       27.84       27.80    
        27.76       27.71       27.65       27.59       27.53       27.46       27.38       27.30       27.22       27.13    
        27.03       26.93       26.82       26.70       26.58       26.45       26.31       26.17       26.02       25.87    
  22    28.01       28.00       27.99       27.98       27.96       27.94       27.91       27.88       27.84       27.80    
        27.76       27.71       27.65       27.59       27.53       27.46       27.38       27.30       27.22       27.13    
        27.03       26.93       26.82       26.70       26.58       26.45       26.31       26.17       26.02       25.87    
  23    28.01       28.00       27.99       27.98       27.96       27.94       27.91       27.88       27.84       27.80    
        27.76       27.71       27.65       27.59       27.53       27.46       27.38       27.30       27.22       27.13    
        27.03       26.93       26.82       26.70       26.58       26.45       26.31       26.17       26.02       25.87    
  24    28.01       28.00       27.99       27.98       27.96       27.94       27.91       27.88       27.84       27.80    
        27.76       27.71       27.65       27.59       27.53       27.46       27.38       27.30       27.22       27.13    
        27.03       26.93       26.82       26.70       26.58       26.45       26.31       26.17       26.02       25.87    
  25    28.01       28.00       27.99       27.98       27.96       27.94       27.91       27.88       27.84       27.80    
        27.76       27.71       27.65       27.59       27.53       27.46       27.38       27.30       27.22       27.13    
        27.03       26.93       26.82       26.70       26.58       26.45       26.31       26.17       26.02       25.87    
  26    28.01       28.00       27.99       27.98       27.96       27.94       27.91       27.88       27.84       27.80    
        27.76       27.71       27.65       27.59       27.53       27.46       27.38       27.30       27.22       27.13    
        27.03       26.93       26.82       26.70       26.58       26.45       26.31       26.17       26.02       25.87    
  27    28.01       28.00       27.99       27.98       27.96       27.94       27.91       27.88       27.84       27.80    
        27.76       27.71       27.65       27.59       27.53       27.46       27.38       27.30       27.22       27.13    
        27.03       26.93       26.82       26.70       26.58       26.45       26.31       26.17       26.02       25.87    
  28    28.01       28.00       27.99       27.98       27.96       27.94       27.91       27.88       27.84       27.80    
        27.76       27.71       27.65       27.59       27.53       27.46       27.38       27.30       27.22       27.13    
        27.03       26.93       26.82       26.70       26.58       26.45       26.31       26.17       26.02       25.87    
  29    28.01       28.00       27.99       27.98       27.96       27.94       27.91       27.88       27.84       27.80    
        27.76       27.71       27.65       27.59       27.53       27.46       27.38       27.30       27.22       27.13    
        27.03       26.93       26.82       26.70       26.58       26.45       26.31       26.17       26.02       25.87    
  30    28.01       28.00       27.99       27.98       27.96       27.94       27.91       27.88       27.84       27.80    
        27.76       27.71       27.65       27.59       27.53       27.46       27.38       27.30       27.22       27.13    
        27.03       26.93       26.82       26.70       26.58       26.45       26.31       26.17       26.02       25.87    

 HEAD WILL BE SAVED ON UNIT 1017 AT END OF TIME STEP    1, STRESS PERIOD   30



         TIME SUMMARY AT END OF TIME STEP    1 IN STRESS PERIOD   30
                    SECONDS     MINUTES      HOURS       DAYS        YEARS
                    -----------------------------------------------------------
   TIME STEP LENGTH 2.59200E+05  4320.0      72.000      3.0000     8.21355E-03
 STRESS PERIOD TIME 2.59200E+05  4320.0      72.000      3.0000     8.21355E-03
         TOTAL TIME 7.29216E+07 1.21536E+06  20256.      844.00      2.3107    
 UBDSV1 SAVING           STO-SS ON UNIT   1016 AT TIME STEP      2, STRESS PERIOD     30
 UBDSV1 SAVING           STO-SY ON UNIT   1016 AT TIME STEP      2, STRESS PERIOD     30
 UBDSV1 SAVING     FLOW-JA-FACE ON UNIT   1016 AT TIME STEP      2, STRESS PERIOD     30
 UBDSV06 SAVING              RCH IN MODEL TEST_TRANS       PACKAGE TEST_TRANS      CONNECTED TO MODEL TEST_TRANS       PACKAGE RCHA             ON UNIT   1016 AT TIME STEP      2, STRESS PERIOD     30
 UBDSV06 SAVING              CHD IN MODEL TEST_TRANS       PACKAGE TEST_TRANS      CONNECTED TO MODEL TEST_TRANS       PACKAGE CHD              ON UNIT   1016 AT TIME STEP      2, STRESS PERIOD     30

 HEAD WILL BE SAVED ON UNIT 1017 AT END OF TIME STEP    2, STRESS PERIOD   30
 UBDSV1 SAVING           STO-SS ON UNIT   1016 AT TIME STEP      3, STRESS PERIOD     30
 UBDSV1 SAVING           STO-SY ON UNIT   1016 AT TIME STEP      3, STRESS PERIOD     30
 UBDSV1 SAVING     FLOW-JA-FACE ON UNIT   1016 AT TIME STEP      3, STRESS PERIOD     30
 UBDSV06 SAVING              RCH IN MODEL TEST_TRANS       PACKAGE TEST_TRANS      CONNECTED TO MODEL TEST_TRANS       PACKAGE RCHA             ON UNIT   1016 AT TIME STEP      3, STRESS PERIOD     30
 UBDSV06 SAVING              CHD IN MODEL TEST_TRANS       PACKAGE TEST_TRANS      CONNECTED TO MODEL TEST_TRANS       PACKAGE CHD              ON UNIT   1016 AT TIME STEP      3, STRESS PERIOD     30

 HEAD WILL BE SAVED ON UNIT 1017 AT END OF TIME STEP    3, STRESS PERIOD   30
 UBDSV1 SAVING           STO-SS ON UNIT   1016 AT TIME STEP      4, STRESS PERIOD     30
 UBDSV1 SAVING           STO-SY ON UNIT   1016 AT TIME STEP      4, STRESS PERIOD     30
 UBDSV1 SAVING     FLOW-JA-FACE ON UNIT   1016 AT TIME STEP      4, STRESS PERIOD     30
 UBDSV06 SAVING              RCH IN MODEL TEST_TRANS       PACKAGE TEST_TRANS      CONNECTED TO MODEL TEST_TRANS       PACKAGE RCHA             ON UNIT   1016 AT TIME STEP      4, STRESS PERIOD     30
 UBDSV06 SAVING              CHD IN MODEL TEST_TRANS       PACKAGE TEST_TRANS      CONNECTED TO MODEL TEST_TRANS       PACKAGE CHD              ON UNIT   1016 AT TIME STEP      4, STRESS PERIOD     30

 HEAD WILL BE SAVED ON UNIT 1017 AT END OF TIME STEP    4, STRESS PERIOD   30
 UBDSV1 SAVING           STO-SS ON UNIT   1016 AT TIME STEP      5, STRESS PERIOD     30
 UBDSV1 SAVING           STO-SY ON UNIT   1016 AT TIME STEP      5, STRESS PERIOD     30
 UBDSV1 SAVING     FLOW-JA-FACE ON UNIT   1016 AT TIME STEP      5, STRESS PERIOD     30
 UBDSV06 SAVING              RCH IN MODEL TEST_TRANS       PACKAGE TEST_TRANS      CONNECTED TO MODEL TEST_TRANS       PACKAGE RCHA             ON UNIT   1016 AT TIME STEP      5, STRESS PERIOD     30
 UBDSV06 SAVING              CHD IN MODEL TEST_TRANS       PACKAGE TEST_TRANS      CONNECTED TO MODEL TEST_TRANS       PACKAGE CHD              ON UNIT   1016 AT TIME STEP      5, STRESS PERIOD     30

 HEAD WILL BE SAVED ON UNIT 1017 AT END OF TIME STEP    5, STRESS PERIOD   30
 UBDSV1 SAVING           STO-SS ON UNIT   1016 AT TIME STEP      6, STRESS PERIOD     30
 UBDSV1 SAVING           STO-SY ON UNIT   1016 AT TIME STEP      6, STRESS PERIOD     30
 UBDSV1 SAVING     FLOW-JA-FACE ON UNIT   1016 AT TIME STEP      6, STRESS PERIOD     30
 UBDSV06 SAVING              RCH IN MODEL TEST_TRANS       PACKAGE TEST_TRANS      CONNECTED TO MODEL TEST_TRANS       PACKAGE RCHA             ON UNIT   1016 AT TIME STEP      6, STRESS PERIOD     30
 UBDSV06 SAVING              CHD IN MODEL TEST_TRANS       PACKAGE TEST_TRANS      CONNECTED TO MODEL TEST_TRANS       PACKAGE CHD              ON UNIT   1016 AT TIME STEP      6, STRESS PERIOD     30

 HEAD WILL BE SAVED ON UNIT 1017 AT END OF TIME STEP    6, STRESS PERIOD   30
 UBDSV1 SAVING           STO-SS ON UNIT   1016 AT TIME STEP      7, STRESS PERIOD     30
 UBDSV1 SAVING           STO-SY ON UNIT   1016 AT TIME STEP      7, STRESS PERIOD     30
 UBDSV1 SAVING     FLOW-JA-FACE ON UNIT   1016 AT TIME STEP      7, STRESS PERIOD     30
 UBDSV06 SAVING              RCH IN MODEL TEST_TRANS       PACKAGE TEST_TRANS      CONNECTED TO MODEL TEST_TRANS       PACKAGE RCHA             ON UNIT   1016 AT TIME STEP      7, STRESS PERIOD     30
 UBDSV06 SAVING              CHD IN MODEL TEST_TRANS       PACKAGE TEST_TRANS      CONNECTED TO MODEL TEST_TRANS       PACKAGE CHD              ON UNIT   1016 AT TIME STEP      7, STRESS PERIOD     30

 HEAD WILL BE SAVED ON UNIT 1017 AT END OF TIME STEP    7, STRESS PERIOD   30
 UBDSV1 SAVING           STO-SS ON UNIT   1016 AT TIME STEP      8, STRESS PERIOD     30
 UBDSV1 SAVING           STO-SY ON UNIT   1016 AT TIME STEP      8, STRESS PERIOD     30
 UBDSV1 SAVING     FLOW-JA-FACE ON UNIT   1016 AT TIME STEP      8, STRESS PERIOD     30
 UBDSV06 SAVING              RCH IN MODEL TEST_TRANS       PACKAGE TEST_TRANS      CONNECTED TO MODEL TEST_TRANS       PACKAGE RCHA             ON UNIT   1016 AT TIME STEP      8, STRESS PERIOD     30
 UBDSV06 SAVING              CHD IN MODEL TEST_TRANS       PACKAGE TEST_TRANS      CONNECTED TO MODEL TEST_TRANS       PACKAGE CHD              ON UNIT   1016 AT TIME STEP      8, STRESS PERIOD     30

 HEAD WILL BE SAVED ON UNIT 1017 AT END OF TIME STEP    8, STRESS PERIOD   30
 UBDSV1 SAVING           STO-SS ON UNIT   1016 AT TIME STEP      9, STRESS PERIOD     30
 UBDSV1 SAVING           STO-SY ON UNIT   1016 AT TIME STEP      9, STRESS PERIOD     30
 UBDSV1 SAVING     FLOW-JA-FACE ON UNIT   1016 AT TIME STEP      9, STRESS PERIOD     30
 UBDSV06 SAVING              RCH IN MODEL TEST_TRANS       PACKAGE TEST_TRANS      CONNECTED TO MODEL TEST_TRANS       PACKAGE RCHA             ON UNIT   1016 AT TIME STEP      9, STRESS PERIOD     30
 UBDSV06 SAVING              CHD IN MODEL TEST_TRANS       PACKAGE TEST_TRANS      CONNECTED TO MODEL TEST_TRANS       PACKAGE CHD              ON UNIT   1016 AT TIME STEP      9, STRESS PERIOD     30

 HEAD WILL BE SAVED ON UNIT 1017 AT END OF TIME STEP    9, STRESS PERIOD   30
 UBDSV1 SAVING           STO-SS ON UNIT   1016 AT TIME STEP     10, STRESS PERIOD     30
 UBDSV1 SAVING           STO-SY ON UNIT   1016 AT TIME STEP     10, STRESS PERIOD     30
 UBDSV1 SAVING     FLOW-JA-FACE ON UNIT   1016 AT TIME STEP     10, STRESS PERIOD     30
 UBDSV06 SAVING              RCH IN MODEL TEST_TRANS       PACKAGE TEST_TRANS      CONNECTED TO MODEL TEST_TRANS       PACKAGE RCHA             ON UNIT   1016 AT TIME STEP     10, STRESS PERIOD     30
 UBDSV06 SAVING              CHD IN MODEL TEST_TRANS       PACKAGE TEST_TRANS      CONNECTED TO MODEL TEST_TRANS       PACKAGE CHD              ON UNIT   1016 AT TIME STEP     10, STRESS PERIOD     30
1
  HEAD IN LAYER   1 AT END OF TIME STEP  10 IN STRESS PERIOD   30
  ---------------------------------------------------------------------------

            1           2           3           4           5           6           7           8           9          10
           11          12          13          14          15          16          17          18          19          20
           21          22          23          24          25          26          27          28          29          30
 ........................................................................................................................
   1    27.87       27.87       27.86       27.85       27.83       27.81       27.79       27.76       27.73       27.69    
        27.65       27.60       27.55       27.50       27.44       27.37       27.30       27.23       27.15       27.07    
        26.98       26.88       26.78       26.68       26.56       26.44       26.31       26.17       26.03       25.87    
   2    27.87       27.87       27.86       27.85       27.83       27.81       27.79       27.76       27.73       27.69    
        27.65       27.60       27.55       27.50       27.44       27.37       27.30       27.23       27.15       27.07    
        26.98       26.88       26.78       26.68       26.56       26.44       26.31       26.17       26.03       25.87    
   3    27.87       27.87       27.86       27.85       27.83       27.81       27.79       27.76       27.73       27.69    
        27.65       27.60       27.55       27.50       27.44       27.37       27.30       27.23       27.15       27.07    
        26.98       26.88       26.78       26.68       26.56       26.44       26.31       26.17       26.03       25.87    
   4    27.87       27.87       27.86       27.85       27.83       27.81       27.79       27.76       27.73       27.69    
        27.65       27.60       27.55       27.50       27.44       27.37       27.30       27.23       27.15       27.07    
        26.98       26.88       26.78       26.68       26.56       26.44       26.31       26.17       26.03       25.87    
   5    27.87       27.87       27.86       27.85       27.83       27.81       27.79       27.76       27.73       27.69    
        27.65       27.60       27.55       27.50       27.44       27.37       27.30       27.23       27.15       27.07    
        26.98       26.88       26.78       26.68       26.56       26.44       26.31       26.17       26.03       25.87    
   6    27.87       27.87       27.86       27.85       27.83       27.81       27.79       27.76       27.73       27.69    
        27.65       27.60       27.55       27.50       27.44       27.37       27.30       27.23       27.15       27.07    
        26.98       26.88       26.78       26.68       26.56       26.44       26.31       26.17       26.03       25.87    
   7    27.87       27.87       27.86       27.85       27.83       27.81       27.79       27.76       27.73       27.69    
        27.65       27.60       27.55       27.50       27.44       27.37       27.30       27.23       27.15       27.07    
        26.98       26.88       26.78       26.68       26.56       26.44       26.31       26.17       26.03       25.87    
   8    27.87       27.87       27.86       27.85       27.83       27.81       27.79       27.76       27.73       27.69    
        27.65       27.60       27.55       27.50       27.44       27.37       27.30       27.23       27.15       27.07    
        26.98       26.88       26.78       26.68       26.56       26.44       26.31       26.17       26.03       25.87    
   9    27.87       27.87       27.86       27.85       27.83       27.81       27.79       27.76       27.73       27.69    
        27.65       27.60       27.55       27.50       27.44       27.37       27.30       27.23       27.15       27.07    
        26.98       26.88       26.78       26.68       26.56       26.44       26.31       26.17       26.03       25.87    
  10    27.87       27.87       27.86       27.85       27.83       27.81       27.79       27.76       27.73       27.69    
        27.65       27.60       27.55       27.50       27.44       27.37       27.30       27.23       27.15       27.07    
        26.98       26.88       26.78       26.68       26.56       26.44       26.31       26.17       26.03       25.87    
  11    27.87       27.87       27.86       27.85       27.83       27.81       27.79       27.76       27.73       27.69    
        27.65       27.60       27.55       27.50       27.44       27.37       27.30       27.23       27.15       27.07    
        26.98       26.88       26.78       26.68       26.56       26.44       26.31       26.17       26.03       25.87    
  12    27.87       27.87       27.86       27.85       27.83       27.81       27.79       27.76       27.73       27.69    
        27.65       27.60       27.55       27.50       27.44       27.37       27.30       27.23       27.15       27.07    
        26.98       26.88       26.78       26.68       26.56       26.44       26.31       26.17       26.03       25.87    
  13    27.87       27.87       27.86       27.85       27.83       27.81       27.79       27.76       27.73       27.69    
        27.65       27.60       27.55       27.50       27.44       27.37       27.30       27.23       27.15       27.07    
        26.98       26.88       26.78       26.68       26.56       26.44       26.31       26.17       26.03       25.87    
  14    27.87       27.87       27.86       27.85       27.83       27.81       27.79       27.76       27.73       27.69    
        27.65       27.60       27.55       27.50       27.44       27.37       27.30       27.23       27.15       27.07    
        26.98       26.88       26.78       26.68       26.56       26.44       26.31       26.17       26.03       25.87    
  15    27.87       27.87       27.86       27.85       27.83       27.81       27.79       27.76       27.73       27.69    
        27.65       27.60       27.55       27.50       27.44       27.37       27.30       27.23       27.15       27.07    
        26.98       26.88       26.78       26.68       26.56       26.44       26.31       26.17       26.03       25.87    
  16    27.87       27.87       27.86       27.85       27.83       27.81       27.79       27.76       27.73       27.69    
        27.65       27.60       27.55       27.50       27.44       27.37       27.30       27.23       27.15       27.07    
        26.98       26.88       26.78       26.68       26.56       26.44       26.31       26.17       26.03       25.87    
  17    27.87       27.87       27.86       27.85       27.83       27.81       27.79       27.76       27.73       27.69    
        27.65       27.60       27.55       27.50       27.44       27.37       27.30       27.23       27.15       27.07    
        26.98       26.88       26.78       26.68       26.56       26.44       26.31       26.17       26.03       25.87    
  18    27.87       27.87       27.86       27.85       27.83       27.81       27.79       27.76       27.73       27.69    
        27.65       27.60       27.55       27.50       27.44       27.37       27.30       27.23       27.15       27.07    
        26.98       26.88       26.78       26.68       26.56       26.44       26.31       26.17       26.03       25.87    
  19    27.87       27.87       27.86       27.85       27.83       27.81       27.79       27.76       27.73       27.69    
        27.65       27.60       27.55       27.50       27.44       27.37       27.30       27.23       27.15       27.07    
        26.98       26.88       26.78       26.68       26.56       26.44       26.31       26.17       26.03       25.87    
  20    27.87       27.87       27.86       27.85       27.83       27.81       27.79       27.76       27.73       27.69    
        27.65       27.60       27.55       27.50       27.44       27.37       27.30       27.23       27.15       27.07    
        26.98       26.88       26.78       26.68       26.56       26.44       26.31       26.17       26.03       25.87    
  21    27.87       27.87       27.86       27.85       27.83       27.81       27.79       27.76       27.73       27.69    
        27.65       27.60       27.55       27.50       27.44       27.37       27.30       27.23       27.15       27.07    
        26.98       26.88       26.78       26.68       26.56       26.44       26.31       26.17       26.03       25.87    
  22    27.87       27.87       27.86       27.85       27.83       27.81       27.79       27.76       27.73       27.69    
        27.65       27.60       27.55       27.50       27.44       27.37       27.30       27.23       27.15       27.07    
        26.98       26.88       26.78       26.68       26.56       26.44       26.31       26.17       26.03       25.87    
  23    27.87       27.87       27.86       27.85       27.83       27.81       27.79       27.76       27.73       27.69    
        27.65       27.60       27.55       27.50       27.44       27.37       27.30       27.23       27.15       27.07    
        26.98       26.88       26.78       26.68       26.56       26.44       26.31       26.17       26.03       25.87    
  24    27.87       27.87       27.86       27.85       27.83       27.81       27.79       27.76       27.73       27.69    
        27.65       27.60       27.55       27.50       27.44       27.37       27.30       27.23       27.15       27.07    
        26.98       26.88       26.78       26.68       26.56       26.44       26.31       26.17       26.03       25.87    
  25    27.87       27.87       27.86       27.85       27.83       27.81       27.79       27.76       27.73       27.69    
        27.65       27.60       27.55       27.50       27.44       27.37       27.30       27.23       27.15       27.07    
        26.98       26.88       26.78       26.68       26.56       26.44       26.31       26.17       26.03       25.87    
  26    27.87       27.87       27.86       27.85       27.83       27.81       27.79       27.76       27.73       27.69    
        27.65       27.60       27.55       27.50       27.44       27.37       27.30       27.23       27.15       27.07    
        26.98       26.88       26.78       26.68       26.56       26.44       26.31       26.17       26.03       25.87    
  27    27.87       27.87       27.86       27.85       27.83       27.81       27.79       27.76       27.73       27.69    
        27.65       27.60       27.55       27.50       27.44       27.37       27.30       27.23       27.15       27.07    
        26.98       26.88       26.78       26.68       26.56       26.44       26.31       26.17       26.03       25.87    
  28    27.87       27.87       27.86       27.85       27.83       27.81       27.79       27.76       27.73       27.69    
        27.65       27.60       27.55       27.50       27.44       27.37       27.30       27.23       27.15       27.07    
        26.98       26.88       26.78       26.68       26.56       26.44       26.31       26.17       26.03       25.87    
  29    27.87       27.87       27.86       27.85       27.83       27.81       27.79       27.76       27.73       27.69    
        27.65       27.60       27.55       27.50       27.44       27.37       27.30       27.23       27.15       27.07    
        26.98       26.88       26.78       26.68       26.56       26.44       26.31       26.17       26.03       25.87    
  30    27.87       27.87       27.86       27.85       27.83       27.81       27.79       27.76       27.73       27.69    
        27.65       27.60       27.55       27.50       27.44       27.37       27.30       27.23       27.15       27.07    
        26.98       26.88       26.78       26.68       26.56       26.44       26.31       26.17       26.03       25.87    

 HEAD WILL BE SAVED ON UNIT 1017 AT END OF TIME STEP   10, STRESS PERIOD   30


  VOLUME BUDGET FOR ENTIRE MODEL AT END OF TIME STEP   10, STRESS PERIOD  30
  ---------------------------------------------------------------------------------------------------

     CUMULATIVE VOLUME      L**3       RATES FOR THIS TIME STEP      L**3/T          PACKAGE NAME    
     ------------------                 ------------------------                     ----------------

           IN:                                      IN:
           ---                                      ---
              STO-SS =          46.3822                STO-SS =       7.9738E-02     STORAGE         
              STO-SY =       29269.7796                STO-SY =          49.7295     STORAGE         
                 RCH =      144324.7215                   RCH =          71.5068     RCHA            
                 CHD =           0.0000                   CHD =           0.0000     CHD             

            TOTAL IN =      173640.8833              TOTAL IN =         121.3161

          OUT:                                     OUT:
          ----                                     ----
              STO-SS =          33.3105                STO-SS =           0.0000     STORAGE         
              STO-SY =       21385.6120                STO-SY =           0.0000     STORAGE         
                 RCH =           0.0000                   RCH =           0.0000     RCHA            
                 CHD =      152221.1665                   CHD =         121.2911     CHD             

           TOTAL OUT =      173640.0891             TOTAL OUT =         121.2911

            IN - OUT =           0.7943              IN - OUT =       2.5033E-02

 PERCENT DISCREPANCY =           0.00     PERCENT DISCREPANCY =           0.02




         TIME SUMMARY AT END OF TIME STEP   10 IN STRESS PERIOD   30
                    SECONDS     MINUTES      HOURS       DAYS        YEARS
                    -----------------------------------------------------------
   TIME STEP LENGTH 2.59200E+05  4320.0      72.000      3.0000     8.21355E-03
 STRESS PERIOD TIME 2.59200E+06  43200.      720.00      30.000     8.21355E-02
         TOTAL TIME 7.52544E+07 1.25424E+06  20904.      871.00      2.3847    

 OUTPUT CONTROL FOR STRESS PERIOD 31 IS REPEATED USING SETTINGS FROM A PREVIOUS STRESS PERIOD.


 STRESS PERIOD 31 IS TRANSIENT


                 RECHARGE =  0.5479452E-03
 UBDSV1 SAVING           STO-SS ON UNIT   1016 AT TIME STEP      1, STRESS PERIOD     31
 UBDSV1 SAVING           STO-SY ON UNIT   1016 AT TIME STEP      1, STRESS PERIOD     31
 UBDSV1 SAVING     FLOW-JA-FACE ON UNIT   1016 AT TIME STEP      1, STRESS PERIOD     31
 UBDSV06 SAVING              RCH IN MODEL TEST_TRANS       PACKAGE TEST_TRANS      CONNECTED TO MODEL TEST_TRANS       PACKAGE RCHA             ON UNIT   1016 AT TIME STEP      1, STRESS PERIOD     31
 UBDSV06 SAVING              CHD IN MODEL TEST_TRANS       PACKAGE TEST_TRANS      CONNECTED TO MODEL TEST_TRANS       PACKAGE CHD              ON UNIT   1016 AT TIME STEP      1, STRESS PERIOD     31
1
  HEAD IN LAYER   1 AT END OF TIME STEP   1 IN STRESS PERIOD   31
  ---------------------------------------------------------------------------

            1           2           3           4           5           6           7           8           9          10
           11          12          13          14          15          16          17          18          19          20
           21          22          23          24          25          26          27          28          29          30
 ........................................................................................................................
   1    27.86       27.85       27.84       27.83       27.82       27.80       27.77       27.74       27.71       27.67    
        27.63       27.59       27.54       27.48       27.42       27.36       27.29       27.22       27.14       27.05    
        26.96       26.87       26.76       26.64       26.52       26.37       26.20       25.99       25.70       25.27    
   2    27.86       27.85       27.84       27.83       27.82       27.80       27.77       27.74       27.71       27.67    
        27.63       27.59       27.54       27.48       27.42       27.36       27.29       27.22       27.14       27.05    
        26.96       26.87       26.76       26.64       26.52       26.37       26.20       25.99       25.70       25.27    
   3    27.86       27.85       27.84       27.83       27.82       27.80       27.77       27.74       27.71       27.67    
        27.63       27.59       27.54       27.48       27.42       27.36       27.29       27.22       27.14       27.05    
        26.96       26.87       26.76       26.64       26.52       26.37       26.20       25.99       25.70       25.27    
   4    27.86       27.85       27.84       27.83       27.82       27.80       27.77       27.74       27.71       27.67    
        27.63       27.59       27.54       27.48       27.42       27.36       27.29       27.22       27.14       27.05    
        26.96       26.87       26.76       26.64       26.52       26.37       26.20       25.99       25.70       25.27    
   5    27.86       27.85       27.84       27.83       27.82       27.80       27.77       27.74       27.71       27.67    
        27.63       27.59       27.54       27.48       27.42       27.36       27.29       27.22       27.14       27.05    
        26.96       26.87       26.76       26.64       26.52       26.37       26.20       25.99       25.70       25.27    
   6    27.86       27.85       27.84       27.83       27.82       27.80       27.77       27.74       27.71       27.67    
        27.63       27.59       27.54       27.48       27.42       27.36       27.29       27.22       27.14       27.05    
        26.96       26.87       26.76       26.64       26.52       26.37       26.20       25.99       25.70       25.27    
   7    27.86       27.85       27.84       27.83       27.82       27.80       27.77       27.74       27.71       27.67    
        27.63       27.59       27.54       27.48       27.42       27.36       27.29       27.22       27.14       27.05    
        26.96       26.87       26.76       26.64       26.52       26.37       26.20       25.99       25.70       25.27    
   8    27.86       27.85       27.84       27.83       27.82       27.80       27.77       27.74       27.71       27.67    
        27.63       27.59       27.54       27.48       27.42       27.36       27.29       27.22       27.14       27.05    
        26.96       26.87       26.76       26.64       26.52       26.37       26.20       25.99       25.70       25.27    
   9    27.86       27.85       27.84       27.83       27.82       27.80       27.77       27.74       27.71       27.67    
        27.63       27.59       27.54       27.48       27.42       27.36       27.29       27.22       27.14       27.05    
        26.96       26.87       26.76       26.64       26.52       26.37       26.20       25.99       25.70       25.27    
  10    27.86       27.85       27.84       27.83       27.82       27.80       27.77       27.74       27.71       27.67    
        27.63       27.59       27.54       27.48       27.42       27.36       27.29       27.22       27.14       27.05    
        26.96       26.87       26.76       26.64       26.52       26.37       26.20       25.99       25.70       25.27    
  11    27.86       27.85       27.84       27.83       27.82       27.80       27.77       27.74       27.71       27.67    
        27.63       27.59       27.54       27.48       27.42       27.36       27.29       27.22       27.14       27.05    
        26.96       26.87       26.76       26.64       26.52       26.37       26.20       25.99       25.70       25.27    
  12    27.86       27.85       27.84       27.83       27.82       27.80       27.77       27.74       27.71       27.67    
        27.63       27.59       27.54       27.48       27.42       27.36       27.29       27.22       27.14       27.05    
        26.96       26.87       26.76       26.64       26.52       26.37       26.20       25.99       25.70       25.27    
  13    27.86       27.85       27.84       27.83       27.82       27.80       27.77       27.74       27.71       27.67    
        27.63       27.59       27.54       27.48       27.42       27.36       27.29       27.22       27.14       27.05    
        26.96       26.87       26.76       26.64       26.52       26.37       26.20       25.99       25.70       25.27    
  14    27.86       27.85       27.84       27.83       27.82       27.80       27.77       27.74       27.71       27.67    
        27.63       27.59       27.54       27.48       27.42       27.36       27.29       27.22       27.14       27.05    
        26.96       26.87       26.76       26.64       26.52       26.37       26.20       25.99       25.70       25.27    
  15    27.86       27.85       27.84       27.83       27.82       27.80       27.77       27.74       27.71       27.67    
        27.63       27.59       27.54       27.48       27.42       27.36       27.29       27.22       27.14       27.05    
        26.96       26.87       26.76       26.64       26.52       26.37       26.20       25.99       25.70       25.27    
  16    27.86       27.85       27.84       27.83       27.82       27.80       27.77       27.74       27.71       27.67    
        27.63       27.59       27.54       27.48       27.42       27.36       27.29       27.22       27.14       27.05    
        26.96       26.87       26.76       26.64       26.52       26.37       26.20       25.99       25.70       25.27    
  17    27.86       27.85       27.84       27.83       27.82       27.80       27.77       27.74       27.71       27.67    
        27.63       27.59       27.54       27.48       27.42       27.36       27.29       27.22       27.14       27.05    
        26.96       26.87       26.76       26.64       26.52       26.37       26.20       25.99       25.70       25.27    
  18    27.86       27.85       27.84       27.83       27.82       27.80       27.77       27.74       27.71       27.67    
        27.63       27.59       27.54       27.48       27.42       27.36       27.29       27.22       27.14       27.05    
        26.96       26.87       26.76       26.64       26.52       26.37       26.20       25.99       25.70       25.27    
  19    27.86       27.85       27.84       27.83       27.82       27.80       27.77       27.74       27.71       27.67    
        27.63       27.59       27.54       27.48       27.42       27.36       27.29       27.22       27.14       27.05    
        26.96       26.87       26.76       26.64       26.52       26.37       26.20       25.99       25.70       25.27    
  20    27.86       27.85       27.84       27.83       27.82       27.80       27.77       27.74       27.71       27.67    
        27.63       27.59       27.54       27.48       27.42       27.36       27.29       27.22       27.14       27.05    
        26.96       26.87       26.76       26.64       26.52       26.37       26.20       25.99       25.70       25.27    
  21    27.86       27.85       27.84       27.83       27.82       27.80       27.77       27.74       27.71       27.67    
        27.63       27.59       27.54       27.48       27.42       27.36       27.29       27.22       27.14       27.05    
        26.96       26.87       26.76       26.64       26.52       26.37       26.20       25.99       25.70       25.27    
  22    27.86       27.85       27.84       27.83       27.82       27.80       27.77       27.74       27.71       27.67    
        27.63       27.59       27.54       27.48       27.42       27.36       27.29       27.22       27.14       27.05    
        26.96       26.87       26.76       26.64       26.52       26.37       26.20       25.99       25.70       25.27    
  23    27.86       27.85       27.84       27.83       27.82       27.80       27.77       27.74       27.71       27.67    
        27.63       27.59       27.54       27.48       27.42       27.36       27.29       27.22       27.14       27.05    
        26.96       26.87       26.76       26.64       26.52       26.37       26.20       25.99       25.70       25.27    
  24    27.86       27.85       27.84       27.83       27.82       27.80       27.77       27.74       27.71       27.67    
        27.63       27.59       27.54       27.48       27.42       27.36       27.29       27.22       27.14       27.05    
        26.96       26.87       26.76       26.64       26.52       26.37       26.20       25.99       25.70       25.27    
  25    27.86       27.85       27.84       27.83       27.82       27.80       27.77       27.74       27.71       27.67    
        27.63       27.59       27.54       27.48       27.42       27.36       27.29       27.22       27.14       27.05    
        26.96       26.87       26.76       26.64       26.52       26.37       26.20       25.99       25.70       25.27    
  26    27.86       27.85       27.84       27.83       27.82       27.80       27.77       27.74       27.71       27.67    
        27.63       27.59       27.54       27.48       27.42       27.36       27.29       27.22       27.14       27.05    
        26.96       26.87       26.76       26.64       26.52       26.37       26.20       25.99       25.70       25.27    
  27    27.86       27.85       27.84       27.83       27.82       27.80       27.77       27.74       27.71       27.67    
        27.63       27.59       27.54       27.48       27.42       27.36       27.29       27.22       27.14       27.05    
        26.96       26.87       26.76       26.64       26.52       26.37       26.20       25.99       25.70       25.27    
  28    27.86       27.85       27.84       27.83       27.82       27.80       27.77       27.74       27.71       27.67    
        27.63       27.59       27.54       27.48       27.42       27.36       27.29       27.22       27.14       27.05    
        26.96       26.87       26.76       26.64       26.52       26.37       26.20       25.99       25.70       25.27    
  29    27.86       27.85       27.84       27.83       27.82       27.80       27.77       27.74       27.71       27.67    
        27.63       27.59       27.54       27.48       27.42       27.36       27.29       27.22       27.14       27.05    
        26.96       26.87       26.76       26.64       26.52       26.37       26.20       25.99       25.70       25.27    
  30    27.86       27.85       27.84       27.83       27.82       27.80       27.77       27.74       27.71       27.67    
        27.63       27.59       27.54       27.48       27.42       27.36       27.29       27.22       27.14       27.05    
        26.96       26.87       26.76       26.64       26.52       26.37       26.20       25.99       25.70       25.27    

 HEAD WILL BE SAVED ON UNIT 1017 AT END OF TIME STEP    1, STRESS PERIOD   31



         TIME SUMMARY AT END OF TIME STEP    1 IN STRESS PERIOD   31
                    SECONDS     MINUTES      HOURS       DAYS        YEARS
                    -----------------------------------------------------------
   TIME STEP LENGTH 2.59200E+05  4320.0      72.000      3.0000     8.21355E-03
 STRESS PERIOD TIME 2.59200E+05  4320.0      72.000      3.0000     8.21355E-03
         TOTAL TIME 7.55136E+07 1.25856E+06  20976.      874.00      2.3929    
 UBDSV1 SAVING           STO-SS ON UNIT   1016 AT TIME STEP      2, STRESS PERIOD     31
 UBDSV1 SAVING           STO-SY ON UNIT   1016 AT TIME STEP      2, STRESS PERIOD     31
 UBDSV1 SAVING     FLOW-JA-FACE ON UNIT   1016 AT TIME STEP      2, STRESS PERIOD     31
 UBDSV06 SAVING              RCH IN MODEL TEST_TRANS       PACKAGE TEST_TRANS      CONNECTED TO MODEL TEST_TRANS       PACKAGE RCHA             ON UNIT   1016 AT TIME STEP      2, STRESS PERIOD     31
 UBDSV06 SAVING              CHD IN MODEL TEST_TRANS       PACKAGE TEST_TRANS      CONNECTED TO MODEL TEST_TRANS       PACKAGE CHD              ON UNIT   1016 AT TIME STEP      2, STRESS PERIOD     31

 HEAD WILL BE SAVED ON UNIT 1017 AT END OF TIME STEP    2, STRESS PERIOD   31
 UBDSV1 SAVING           STO-SS ON UNIT   1016 AT TIME STEP      3, STRESS PERIOD     31
 UBDSV1 SAVING           STO-SY ON UNIT   1016 AT TIME STEP      3, STRESS PERIOD     31
 UBDSV1 SAVING     FLOW-JA-FACE ON UNIT   1016 AT TIME STEP      3, STRESS PERIOD     31
 UBDSV06 SAVING              RCH IN MODEL TEST_TRANS       PACKAGE TEST_TRANS      CONNECTED TO MODEL TEST_TRANS       PACKAGE RCHA             ON UNIT   1016 AT TIME STEP      3, STRESS PERIOD     31
 UBDSV06 SAVING              CHD IN MODEL TEST_TRANS       PACKAGE TEST_TRANS      CONNECTED TO MODEL TEST_TRANS       PACKAGE CHD              ON UNIT   1016 AT TIME STEP      3, STRESS PERIOD     31

 HEAD WILL BE SAVED ON UNIT 1017 AT END OF TIME STEP    3, STRESS PERIOD   31
 UBDSV1 SAVING           STO-SS ON UNIT   1016 AT TIME STEP      4, STRESS PERIOD     31
 UBDSV1 SAVING           STO-SY ON UNIT   1016 AT TIME STEP      4, STRESS PERIOD     31
 UBDSV1 SAVING     FLOW-JA-FACE ON UNIT   1016 AT TIME STEP      4, STRESS PERIOD     31
 UBDSV06 SAVING              RCH IN MODEL TEST_TRANS       PACKAGE TEST_TRANS      CONNECTED TO MODEL TEST_TRANS       PACKAGE RCHA             ON UNIT   1016 AT TIME STEP      4, STRESS PERIOD     31
 UBDSV06 SAVING              CHD IN MODEL TEST_TRANS       PACKAGE TEST_TRANS      CONNECTED TO MODEL TEST_TRANS       PACKAGE CHD              ON UNIT   1016 AT TIME STEP      4, STRESS PERIOD     31

 HEAD WILL BE SAVED ON UNIT 1017 AT END OF TIME STEP    4, STRESS PERIOD   31
 UBDSV1 SAVING           STO-SS ON UNIT   1016 AT TIME STEP      5, STRESS PERIOD     31
 UBDSV1 SAVING           STO-SY ON UNIT   1016 AT TIME STEP      5, STRESS PERIOD     31
 UBDSV1 SAVING     FLOW-JA-FACE ON UNIT   1016 AT TIME STEP      5, STRESS PERIOD     31
 UBDSV06 SAVING              RCH IN MODEL TEST_TRANS       PACKAGE TEST_TRANS      CONNECTED TO MODEL TEST_TRANS       PACKAGE RCHA             ON UNIT   1016 AT TIME STEP      5, STRESS PERIOD     31
 UBDSV06 SAVING              CHD IN MODEL TEST_TRANS       PACKAGE TEST_TRANS      CONNECTED TO MODEL TEST_TRANS       PACKAGE CHD              ON UNIT   1016 AT TIME STEP      5, STRESS PERIOD     31

 HEAD WILL BE SAVED ON UNIT 1017 AT END OF TIME STEP    5, STRESS PERIOD   31
 UBDSV1 SAVING           STO-SS ON UNIT   1016 AT TIME STEP      6, STRESS PERIOD     31
 UBDSV1 SAVING           STO-SY ON UNIT   1016 AT TIME STEP      6, STRESS PERIOD     31
 UBDSV1 SAVING     FLOW-JA-FACE ON UNIT   1016 AT TIME STEP      6, STRESS PERIOD     31
 UBDSV06 SAVING              RCH IN MODEL TEST_TRANS       PACKAGE TEST_TRANS      CONNECTED TO MODEL TEST_TRANS       PACKAGE RCHA             ON UNIT   1016 AT TIME STEP      6, STRESS PERIOD     31
 UBDSV06 SAVING              CHD IN MODEL TEST_TRANS       PACKAGE TEST_TRANS      CONNECTED TO MODEL TEST_TRANS       PACKAGE CHD              ON UNIT   1016 AT TIME STEP      6, STRESS PERIOD     31

 HEAD WILL BE SAVED ON UNIT 1017 AT END OF TIME STEP    6, STRESS PERIOD   31
 UBDSV1 SAVING           STO-SS ON UNIT   1016 AT TIME STEP      7, STRESS PERIOD     31
 UBDSV1 SAVING           STO-SY ON UNIT   1016 AT TIME STEP      7, STRESS PERIOD     31
 UBDSV1 SAVING     FLOW-JA-FACE ON UNIT   1016 AT TIME STEP      7, STRESS PERIOD     31
 UBDSV06 SAVING              RCH IN MODEL TEST_TRANS       PACKAGE TEST_TRANS      CONNECTED TO MODEL TEST_TRANS       PACKAGE RCHA             ON UNIT   1016 AT TIME STEP      7, STRESS PERIOD     31
 UBDSV06 SAVING              CHD IN MODEL TEST_TRANS       PACKAGE TEST_TRANS      CONNECTED TO MODEL TEST_TRANS       PACKAGE CHD              ON UNIT   1016 AT TIME STEP      7, STRESS PERIOD     31

 HEAD WILL BE SAVED ON UNIT 1017 AT END OF TIME STEP    7, STRESS PERIOD   31
 UBDSV1 SAVING           STO-SS ON UNIT   1016 AT TIME STEP      8, STRESS PERIOD     31
 UBDSV1 SAVING           STO-SY ON UNIT   1016 AT TIME STEP      8, STRESS PERIOD     31
 UBDSV1 SAVING     FLOW-JA-FACE ON UNIT   1016 AT TIME STEP      8, STRESS PERIOD     31
 UBDSV06 SAVING              RCH IN MODEL TEST_TRANS       PACKAGE TEST_TRANS      CONNECTED TO MODEL TEST_TRANS       PACKAGE RCHA             ON UNIT   1016 AT TIME STEP      8, STRESS PERIOD     31
 UBDSV06 SAVING              CHD IN MODEL TEST_TRANS       PACKAGE TEST_TRANS      CONNECTED TO MODEL TEST_TRANS       PACKAGE CHD              ON UNIT   1016 AT TIME STEP      8, STRESS PERIOD     31

 HEAD WILL BE SAVED ON UNIT 1017 AT END OF TIME STEP    8, STRESS PERIOD   31
 UBDSV1 SAVING           STO-SS ON UNIT   1016 AT TIME STEP      9, STRESS PERIOD     31
 UBDSV1 SAVING           STO-SY ON UNIT   1016 AT TIME STEP      9, STRESS PERIOD     31
 UBDSV1 SAVING     FLOW-JA-FACE ON UNIT   1016 AT TIME STEP      9, STRESS PERIOD     31
 UBDSV06 SAVING              RCH IN MODEL TEST_TRANS       PACKAGE TEST_TRANS      CONNECTED TO MODEL TEST_TRANS       PACKAGE RCHA             ON UNIT   1016 AT TIME STEP      9, STRESS PERIOD     31
 UBDSV06 SAVING              CHD IN MODEL TEST_TRANS       PACKAGE TEST_TRANS      CONNECTED TO MODEL TEST_TRANS       PACKAGE CHD              ON UNIT   1016 AT TIME STEP      9, STRESS PERIOD     31

 HEAD WILL BE SAVED ON UNIT 1017 AT END OF TIME STEP    9, STRESS PERIOD   31
 UBDSV1 SAVING           STO-SS ON UNIT   1016 AT TIME STEP     10, STRESS PERIOD     31
 UBDSV1 SAVING           STO-SY ON UNIT   1016 AT TIME STEP     10, STRESS PERIOD     31
 UBDSV1 SAVING     FLOW-JA-FACE ON UNIT   1016 AT TIME STEP     10, STRESS PERIOD     31
 UBDSV06 SAVING              RCH IN MODEL TEST_TRANS       PACKAGE TEST_TRANS      CONNECTED TO MODEL TEST_TRANS       PACKAGE RCHA             ON UNIT   1016 AT TIME STEP     10, STRESS PERIOD     31
 UBDSV06 SAVING              CHD IN MODEL TEST_TRANS       PACKAGE TEST_TRANS      CONNECTED TO MODEL TEST_TRANS       PACKAGE CHD              ON UNIT   1016 AT TIME STEP     10, STRESS PERIOD     31
1
  HEAD IN LAYER   1 AT END OF TIME STEP  10 IN STRESS PERIOD   31
  ---------------------------------------------------------------------------

            1           2           3           4           5           6           7           8           9          10
           11          12          13          14          15          16          17          18          19          20
           21          22          23          24          25          26          27          28          29          30
 ........................................................................................................................
   1    27.71       27.71       27.70       27.69       27.67       27.65       27.63       27.60       27.56       27.53    
        27.48       27.44       27.39       27.33       27.27       27.20       27.12       27.04       26.95       26.86    
        26.75       26.64       26.51       26.38       26.24       26.08       25.90       25.71       25.50       25.27    
   2    27.71       27.71       27.70       27.69       27.67       27.65       27.63       27.60       27.56       27.53    
        27.48       27.44       27.39       27.33       27.27       27.20       27.12       27.04       26.95       26.86    
        26.75       26.64       26.51       26.38       26.24       26.08       25.90       25.71       25.50       25.27    
   3    27.71       27.71       27.70       27.69       27.67       27.65       27.63       27.60       27.56       27.53    
        27.48       27.44       27.39       27.33       27.27       27.20       27.12       27.04       26.95       26.86    
        26.75       26.64       26.51       26.38       26.24       26.08       25.90       25.71       25.50       25.27    
   4    27.71       27.71       27.70       27.69       27.67       27.65       27.63       27.60       27.56       27.53    
        27.48       27.44       27.39       27.33       27.27       27.20       27.12       27.04       26.95       26.86    
        26.75       26.64       26.51       26.38       26.24       26.08       25.90       25.71       25.50       25.27    
   5    27.71       27.71       27.70       27.69       27.67       27.65       27.63       27.60       27.56       27.53    
        27.48       27.44       27.39       27.33       27.27       27.20       27.12       27.04       26.95       26.86    
        26.75       26.64       26.51       26.38       26.24       26.08       25.90       25.71       25.50       25.27    
   6    27.71       27.71       27.70       27.69       27.67       27.65       27.63       27.60       27.56       27.53    
        27.48       27.44       27.39       27.33       27.27       27.20       27.12       27.04       26.95       26.86    
        26.75       26.64       26.51       26.38       26.24       26.08       25.90       25.71       25.50       25.27    
   7    27.71       27.71       27.70       27.69       27.67       27.65       27.63       27.60       27.56       27.53    
        27.48       27.44       27.39       27.33       27.27       27.20       27.12       27.04       26.95       26.86    
        26.75       26.64       26.51       26.38       26.24       26.08       25.90       25.71       25.50       25.27    
   8    27.71       27.71       27.70       27.69       27.67       27.65       27.63       27.60       27.56       27.53    
        27.48       27.44       27.39       27.33       27.27       27.20       27.12       27.04       26.95       26.86    
        26.75       26.64       26.51       26.38       26.24       26.08       25.90       25.71       25.50       25.27    
   9    27.71       27.71       27.70       27.69       27.67       27.65       27.63       27.60       27.56       27.53    
        27.48       27.44       27.39       27.33       27.27       27.20       27.12       27.04       26.95       26.86    
        26.75       26.64       26.51       26.38       26.24       26.08       25.90       25.71       25.50       25.27    
  10    27.71       27.71       27.70       27.69       27.67       27.65       27.63       27.60       27.56       27.53    
        27.48       27.44       27.39       27.33       27.27       27.20       27.12       27.04       26.95       26.86    
        26.75       26.64       26.51       26.38       26.24       26.08       25.90       25.71       25.50       25.27    
  11    27.71       27.71       27.70       27.69       27.67       27.65       27.63       27.60       27.56       27.53    
        27.48       27.44       27.39       27.33       27.27       27.20       27.12       27.04       26.95       26.86    
        26.75       26.64       26.51       26.38       26.24       26.08       25.90       25.71       25.50       25.27    
  12    27.71       27.71       27.70       27.69       27.67       27.65       27.63       27.60       27.56       27.53    
        27.48       27.44       27.39       27.33       27.27       27.20       27.12       27.04       26.95       26.86    
        26.75       26.64       26.51       26.38       26.24       26.08       25.90       25.71       25.50       25.27    
  13    27.71       27.71       27.70       27.69       27.67       27.65       27.63       27.60       27.56       27.53    
        27.48       27.44       27.39       27.33       27.27       27.20       27.12       27.04       26.95       26.86    
        26.75       26.64       26.51       26.38       26.24       26.08       25.90       25.71       25.50       25.27    
  14    27.71       27.71       27.70       27.69       27.67       27.65       27.63       27.60       27.56       27.53    
        27.48       27.44       27.39       27.33       27.27       27.20       27.12       27.04       26.95       26.86    
        26.75       26.64       26.51       26.38       26.24       26.08       25.90       25.71       25.50       25.27    
  15    27.71       27.71       27.70       27.69       27.67       27.65       27.63       27.60       27.56       27.53    
        27.48       27.44       27.39       27.33       27.27       27.20       27.12       27.04       26.95       26.86    
        26.75       26.64       26.51       26.38       26.24       26.08       25.90       25.71       25.50       25.27    
  16    27.71       27.71       27.70       27.69       27.67       27.65       27.63       27.60       27.56       27.53    
        27.48       27.44       27.39       27.33       27.27       27.20       27.12       27.04       26.95       26.86    
        26.75       26.64       26.51       26.38       26.24       26.08       25.90       25.71       25.50       25.27    
  17    27.71       27.71       27.70       27.69       27.67       27.65       27.63       27.60       27.56       27.53    
        27.48       27.44       27.39       27.33       27.27       27.20       27.12       27.04       26.95       26.86    
        26.75       26.64       26.51       26.38       26.24       26.08       25.90       25.71       25.50       25.27    
  18    27.71       27.71       27.70       27.69       27.67       27.65       27.63       27.60       27.56       27.53    
        27.48       27.44       27.39       27.33       27.27       27.20       27.12       27.04       26.95       26.86    
        26.75       26.64       26.51       26.38       26.24       26.08       25.90       25.71       25.50       25.27    
  19    27.71       27.71       27.70       27.69       27.67       27.65       27.63       27.60       27.56       27.53    
        27.48       27.44       27.39       27.33       27.27       27.20       27.12       27.04       26.95       26.86    
        26.75       26.64       26.51       26.38       26.24       26.08       25.90       25.71       25.50       25.27    
  20    27.71       27.71       27.70       27.69       27.67       27.65       27.63       27.60       27.56       27.53    
        27.48       27.44       27.39       27.33       27.27       27.20       27.12       27.04       26.95       26.86    
        26.75       26.64       26.51       26.38       26.24       26.08       25.90       25.71       25.50       25.27    
  21    27.71       27.71       27.70       27.69       27.67       27.65       27.63       27.60       27.56       27.53    
        27.48       27.44       27.39       27.33       27.27       27.20       27.12       27.04       26.95       26.86    
        26.75       26.64       26.51       26.38       26.24       26.08       25.90       25.71       25.50       25.27    
  22    27.71       27.71       27.70       27.69       27.67       27.65       27.63       27.60       27.56       27.53    
        27.48       27.44       27.39       27.33       27.27       27.20       27.12       27.04       26.95       26.86    
        26.75       26.64       26.51       26.38       26.24       26.08       25.90       25.71       25.50       25.27    
  23    27.71       27.71       27.70       27.69       27.67       27.65       27.63       27.60       27.56       27.53    
        27.48       27.44       27.39       27.33       27.27       27.20       27.12       27.04       26.95       26.86    
        26.75       26.64       26.51       26.38       26.24       26.08       25.90       25.71       25.50       25.27    
  24    27.71       27.71       27.70       27.69       27.67       27.65       27.63       27.60       27.56       27.53    
        27.48       27.44       27.39       27.33       27.27       27.20       27.12       27.04       26.95       26.86    
        26.75       26.64       26.51       26.38       26.24       26.08       25.90       25.71       25.50       25.27    
  25    27.71       27.71       27.70       27.69       27.67       27.65       27.63       27.60       27.56       27.53    
        27.48       27.44       27.39       27.33       27.27       27.20       27.12       27.04       26.95       26.86    
        26.75       26.64       26.51       26.38       26.24       26.08       25.90       25.71       25.50       25.27    
  26    27.71       27.71       27.70       27.69       27.67       27.65       27.63       27.60       27.56       27.53    
        27.48       27.44       27.39       27.33       27.27       27.20       27.12       27.04       26.95       26.86    
        26.75       26.64       26.51       26.38       26.24       26.08       25.90       25.71       25.50       25.27    
  27    27.71       27.71       27.70       27.69       27.67       27.65       27.63       27.60       27.56       27.53    
        27.48       27.44       27.39       27.33       27.27       27.20       27.12       27.04       26.95       26.86    
        26.75       26.64       26.51       26.38       26.24       26.08       25.90       25.71       25.50       25.27    
  28    27.71       27.71       27.70       27.69       27.67       27.65       27.63       27.60       27.56       27.53    
        27.48       27.44       27.39       27.33       27.27       27.20       27.12       27.04       26.95       26.86    
        26.75       26.64       26.51       26.38       26.24       26.08       25.90       25.71       25.50       25.27    
  29    27.71       27.71       27.70       27.69       27.67       27.65       27.63       27.60       27.56       27.53    
        27.48       27.44       27.39       27.33       27.27       27.20       27.12       27.04       26.95       26.86    
        26.75       26.64       26.51       26.38       26.24       26.08       25.90       25.71       25.50       25.27    
  30    27.71       27.71       27.70       27.69       27.67       27.65       27.63       27.60       27.56       27.53    
        27.48       27.44       27.39       27.33       27.27       27.20       27.12       27.04       26.95       26.86    
        26.75       26.64       26.51       26.38       26.24       26.08       25.90       25.71       25.50       25.27    

 HEAD WILL BE SAVED ON UNIT 1017 AT END OF TIME STEP   10, STRESS PERIOD   31


  VOLUME BUDGET FOR ENTIRE MODEL AT END OF TIME STEP   10, STRESS PERIOD  31
  ---------------------------------------------------------------------------------------------------

     CUMULATIVE VOLUME      L**3       RATES FOR THIS TIME STEP      L**3/T          PACKAGE NAME    
     ------------------                 ------------------------                     ----------------

           IN:                                      IN:
           ---                                      ---
              STO-SS =          52.4381                STO-SS =           0.1509     STORAGE         
              STO-SY =       33200.4702                STO-SY =          96.6504     STORAGE         
                 RCH =      145754.8585                   RCH =          47.6712     RCHA            
                 CHD =           0.0000                   CHD =           0.0000     CHD             

            TOTAL IN =      179007.7669              TOTAL IN =         144.4725

          OUT:                                     OUT:
          ----                                     ----
              STO-SS =          33.3105                STO-SS =           0.0000     STORAGE         
              STO-SY =       21385.6120                STO-SY =           0.0000     STORAGE         
                 RCH =           0.0000                   RCH =           0.0000     RCHA            
                 CHD =      157587.9055                   CHD =         144.4639     CHD             

           TOTAL OUT =      179006.8280             TOTAL OUT =         144.4639

            IN - OUT =           0.9388              IN - OUT =       8.6021E-03

 PERCENT DISCREPANCY =           0.00     PERCENT DISCREPANCY =           0.01




         TIME SUMMARY AT END OF TIME STEP   10 IN STRESS PERIOD   31
                    SECONDS     MINUTES      HOURS       DAYS        YEARS
                    -----------------------------------------------------------
   TIME STEP LENGTH 2.59200E+05  4320.0      72.000      3.0000     8.21355E-03
 STRESS PERIOD TIME 2.59200E+06  43200.      720.00      30.000     8.21355E-02
         TOTAL TIME 7.78464E+07 1.29744E+06  21624.      901.00      2.4668    

 OUTPUT CONTROL FOR STRESS PERIOD 32 IS REPEATED USING SETTINGS FROM A PREVIOUS STRESS PERIOD.


 STRESS PERIOD 32 IS TRANSIENT


                 RECHARGE =  0.1095890E-02
 UBDSV1 SAVING           STO-SS ON UNIT   1016 AT TIME STEP      1, STRESS PERIOD     32
 UBDSV1 SAVING           STO-SY ON UNIT   1016 AT TIME STEP      1, STRESS PERIOD     32
 UBDSV1 SAVING     FLOW-JA-FACE ON UNIT   1016 AT TIME STEP      1, STRESS PERIOD     32
 UBDSV06 SAVING              RCH IN MODEL TEST_TRANS       PACKAGE TEST_TRANS      CONNECTED TO MODEL TEST_TRANS       PACKAGE RCHA             ON UNIT   1016 AT TIME STEP      1, STRESS PERIOD     32
 UBDSV06 SAVING              CHD IN MODEL TEST_TRANS       PACKAGE TEST_TRANS      CONNECTED TO MODEL TEST_TRANS       PACKAGE CHD              ON UNIT   1016 AT TIME STEP      1, STRESS PERIOD     32
1
  HEAD IN LAYER   1 AT END OF TIME STEP   1 IN STRESS PERIOD   32
  ---------------------------------------------------------------------------

            1           2           3           4           5           6           7           8           9          10
           11          12          13          14          15          16          17          18          19          20
           21          22          23          24          25          26          27          28          29          30
 ........................................................................................................................
   1    27.70       27.70       27.69       27.68       27.66       27.64       27.62       27.59       27.56       27.52    
        27.48       27.43       27.38       27.32       27.26       27.19       27.11       27.03       26.94       26.84    
        26.74       26.63       26.50       26.37       26.23       26.07       25.89       25.70       25.48       25.23    
   2    27.70       27.70       27.69       27.68       27.66       27.64       27.62       27.59       27.56       27.52    
        27.48       27.43       27.38       27.32       27.26       27.19       27.11       27.03       26.94       26.84    
        26.74       26.63       26.50       26.37       26.23       26.07       25.89       25.70       25.48       25.23    
   3    27.70       27.70       27.69       27.68       27.66       27.64       27.62       27.59       27.56       27.52    
        27.48       27.43       27.38       27.32       27.26       27.19       27.11       27.03       26.94       26.84    
        26.74       26.63       26.50       26.37       26.23       26.07       25.89       25.70       25.48       25.23    
   4    27.70       27.70       27.69       27.68       27.66       27.64       27.62       27.59       27.56       27.52    
        27.48       27.43       27.38       27.32       27.26       27.19       27.11       27.03       26.94       26.84    
        26.74       26.63       26.50       26.37       26.23       26.07       25.89       25.70       25.48       25.23    
   5    27.70       27.70       27.69       27.68       27.66       27.64       27.62       27.59       27.56       27.52    
        27.48       27.43       27.38       27.32       27.26       27.19       27.11       27.03       26.94       26.84    
        26.74       26.63       26.50       26.37       26.23       26.07       25.89       25.70       25.48       25.23    
   6    27.70       27.70       27.69       27.68       27.66       27.64       27.62       27.59       27.56       27.52    
        27.48       27.43       27.38       27.32       27.26       27.19       27.11       27.03       26.94       26.84    
        26.74       26.63       26.50       26.37       26.23       26.07       25.89       25.70       25.48       25.23    
   7    27.70       27.70       27.69       27.68       27.66       27.64       27.62       27.59       27.56       27.52    
        27.48       27.43       27.38       27.32       27.26       27.19       27.11       27.03       26.94       26.84    
        26.74       26.63       26.50       26.37       26.23       26.07       25.89       25.70       25.48       25.23    
   8    27.70       27.70       27.69       27.68       27.66       27.64       27.62       27.59       27.56       27.52    
        27.48       27.43       27.38       27.32       27.26       27.19       27.11       27.03       26.94       26.84    
        26.74       26.63       26.50       26.37       26.23       26.07       25.89       25.70       25.48       25.23    
   9    27.70       27.70       27.69       27.68       27.66       27.64       27.62       27.59       27.56       27.52    
        27.48       27.43       27.38       27.32       27.26       27.19       27.11       27.03       26.94       26.84    
        26.74       26.63       26.50       26.37       26.23       26.07       25.89       25.70       25.48       25.23    
  10    27.70       27.70       27.69       27.68       27.66       27.64       27.62       27.59       27.56       27.52    
        27.48       27.43       27.38       27.32       27.26       27.19       27.11       27.03       26.94       26.84    
        26.74       26.63       26.50       26.37       26.23       26.07       25.89       25.70       25.48       25.23    
  11    27.70       27.70       27.69       27.68       27.66       27.64       27.62       27.59       27.56       27.52    
        27.48       27.43       27.38       27.32       27.26       27.19       27.11       27.03       26.94       26.84    
        26.74       26.63       26.50       26.37       26.23       26.07       25.89       25.70       25.48       25.23    
  12    27.70       27.70       27.69       27.68       27.66       27.64       27.62       27.59       27.56       27.52    
        27.48       27.43       27.38       27.32       27.26       27.19       27.11       27.03       26.94       26.84    
        26.74       26.63       26.50       26.37       26.23       26.07       25.89       25.70       25.48       25.23    
  13    27.70       27.70       27.69       27.68       27.66       27.64       27.62       27.59       27.56       27.52    
        27.48       27.43       27.38       27.32       27.26       27.19       27.11       27.03       26.94       26.84    
        26.74       26.63       26.50       26.37       26.23       26.07       25.89       25.70       25.48       25.23    
  14    27.70       27.70       27.69       27.68       27.66       27.64       27.62       27.59       27.56       27.52    
        27.48       27.43       27.38       27.32       27.26       27.19       27.11       27.03       26.94       26.84    
        26.74       26.63       26.50       26.37       26.23       26.07       25.89       25.70       25.48       25.23    
  15    27.70       27.70       27.69       27.68       27.66       27.64       27.62       27.59       27.56       27.52    
        27.48       27.43       27.38       27.32       27.26       27.19       27.11       27.03       26.94       26.84    
        26.74       26.63       26.50       26.37       26.23       26.07       25.89       25.70       25.48       25.23    
  16    27.70       27.70       27.69       27.68       27.66       27.64       27.62       27.59       27.56       27.52    
        27.48       27.43       27.38       27.32       27.26       27.19       27.11       27.03       26.94       26.84    
        26.74       26.63       26.50       26.37       26.23       26.07       25.89       25.70       25.48       25.23    
  17    27.70       27.70       27.69       27.68       27.66       27.64       27.62       27.59       27.56       27.52    
        27.48       27.43       27.38       27.32       27.26       27.19       27.11       27.03       26.94       26.84    
        26.74       26.63       26.50       26.37       26.23       26.07       25.89       25.70       25.48       25.23    
  18    27.70       27.70       27.69       27.68       27.66       27.64       27.62       27.59       27.56       27.52    
        27.48       27.43       27.38       27.32       27.26       27.19       27.11       27.03       26.94       26.84    
        26.74       26.63       26.50       26.37       26.23       26.07       25.89       25.70       25.48       25.23    
  19    27.70       27.70       27.69       27.68       27.66       27.64       27.62       27.59       27.56       27.52    
        27.48       27.43       27.38       27.32       27.26       27.19       27.11       27.03       26.94       26.84    
        26.74       26.63       26.50       26.37       26.23       26.07       25.89       25.70       25.48       25.23    
  20    27.70       27.70       27.69       27.68       27.66       27.64       27.62       27.59       27.56       27.52    
        27.48       27.43       27.38       27.32       27.26       27.19       27.11       27.03       26.94       26.84    
        26.74       26.63       26.50       26.37       26.23       26.07       25.89       25.70       25.48       25.23    
  21    27.70       27.70       27.69       27.68       27.66       27.64       27.62       27.59       27.56       27.52    
        27.48       27.43       27.38       27.32       27.26       27.19       27.11       27.03       26.94       26.84    
        26.74       26.63       26.50       26.37       26.23       26.07       25.89       25.70       25.48       25.23    
  22    27.70       27.70       27.69       27.68       27.66       27.64       27.62       27.59       27.56       27.52    
        27.48       27.43       27.38       27.32       27.26       27.19       27.11       27.03       26.94       26.84    
        26.74       26.63       26.50       26.37       26.23       26.07       25.89       25.70       25.48       25.23    
  23    27.70       27.70       27.69       27.68       27.66       27.64       27.62       27.59       27.56       27.52    
        27.48       27.43       27.38       27.32       27.26       27.19       27.11       27.03       26.94       26.84    
        26.74       26.63       26.50       26.37       26.23       26.07       25.89       25.70       25.48       25.23    
  24    27.70       27.70       27.69       27.68       27.66       27.64       27.62       27.59       27.56       27.52    
        27.48       27.43       27.38       27.32       27.26       27.19       27.11       27.03       26.94       26.84    
        26.74       26.63       26.50       26.37       26.23       26.07       25.89       25.70       25.48       25.23    
  25    27.70       27.70       27.69       27.68       27.66       27.64       27.62       27.59       27.56       27.52    
        27.48       27.43       27.38       27.32       27.26       27.19       27.11       27.03       26.94       26.84    
        26.74       26.63       26.50       26.37       26.23       26.07       25.89       25.70       25.48       25.23    
  26    27.70       27.70       27.69       27.68       27.66       27.64       27.62       27.59       27.56       27.52    
        27.48       27.43       27.38       27.32       27.26       27.19       27.11       27.03       26.94       26.84    
        26.74       26.63       26.50       26.37       26.23       26.07       25.89       25.70       25.48       25.23    
  27    27.70       27.70       27.69       27.68       27.66       27.64       27.62       27.59       27.56       27.52    
        27.48       27.43       27.38       27.32       27.26       27.19       27.11       27.03       26.94       26.84    
        26.74       26.63       26.50       26.37       26.23       26.07       25.89       25.70       25.48       25.23    
  28    27.70       27.70       27.69       27.68       27.66       27.64       27.62       27.59       27.56       27.52    
        27.48       27.43       27.38       27.32       27.26       27.19       27.11       27.03       26.94       26.84    
        26.74       26.63       26.50       26.37       26.23       26.07       25.89       25.70       25.48       25.23    
  29    27.70       27.70       27.69       27.68       27.66       27.64       27.62       27.59       27.56       27.52    
        27.48       27.43       27.38       27.32       27.26       27.19       27.11       27.03       26.94       26.84    
        26.74       26.63       26.50       26.37       26.23       26.07       25.89       25.70       25.48       25.23    
  30    27.70       27.70       27.69       27.68       27.66       27.64       27.62       27.59       27.56       27.52    
        27.48       27.43       27.38       27.32       27.26       27.19       27.11       27.03       26.94       26.84    
        26.74       26.63       26.50       26.37       26.23       26.07       25.89       25.70       25.48       25.23    

 HEAD WILL BE SAVED ON UNIT 1017 AT END OF TIME STEP    1, STRESS PERIOD   32



         TIME SUMMARY AT END OF TIME STEP    1 IN STRESS PERIOD   32
                    SECONDS     MINUTES      HOURS       DAYS        YEARS
                    -----------------------------------------------------------
   TIME STEP LENGTH 2.59200E+05  4320.0      72.000      3.0000     8.21355E-03
 STRESS PERIOD TIME 2.59200E+05  4320.0      72.000      3.0000     8.21355E-03
         TOTAL TIME 7.81056E+07 1.30176E+06  21696.      904.00      2.4750    
 UBDSV1 SAVING           STO-SS ON UNIT   1016 AT TIME STEP      2, STRESS PERIOD     32
 UBDSV1 SAVING           STO-SY ON UNIT   1016 AT TIME STEP      2, STRESS PERIOD     32
 UBDSV1 SAVING     FLOW-JA-FACE ON UNIT   1016 AT TIME STEP      2, STRESS PERIOD     32
 UBDSV06 SAVING              RCH IN MODEL TEST_TRANS       PACKAGE TEST_TRANS      CONNECTED TO MODEL TEST_TRANS       PACKAGE RCHA             ON UNIT   1016 AT TIME STEP      2, STRESS PERIOD     32
 UBDSV06 SAVING              CHD IN MODEL TEST_TRANS       PACKAGE TEST_TRANS      CONNECTED TO MODEL TEST_TRANS       PACKAGE CHD              ON UNIT   1016 AT TIME STEP      2, STRESS PERIOD     32

 HEAD WILL BE SAVED ON UNIT 1017 AT END OF TIME STEP    2, STRESS PERIOD   32
 UBDSV1 SAVING           STO-SS ON UNIT   1016 AT TIME STEP      3, STRESS PERIOD     32
 UBDSV1 SAVING           STO-SY ON UNIT   1016 AT TIME STEP      3, STRESS PERIOD     32
 UBDSV1 SAVING     FLOW-JA-FACE ON UNIT   1016 AT TIME STEP      3, STRESS PERIOD     32
 UBDSV06 SAVING              RCH IN MODEL TEST_TRANS       PACKAGE TEST_TRANS      CONNECTED TO MODEL TEST_TRANS       PACKAGE RCHA             ON UNIT   1016 AT TIME STEP      3, STRESS PERIOD     32
 UBDSV06 SAVING              CHD IN MODEL TEST_TRANS       PACKAGE TEST_TRANS      CONNECTED TO MODEL TEST_TRANS       PACKAGE CHD              ON UNIT   1016 AT TIME STEP      3, STRESS PERIOD     32

 HEAD WILL BE SAVED ON UNIT 1017 AT END OF TIME STEP    3, STRESS PERIOD   32
 UBDSV1 SAVING           STO-SS ON UNIT   1016 AT TIME STEP      4, STRESS PERIOD     32
 UBDSV1 SAVING           STO-SY ON UNIT   1016 AT TIME STEP      4, STRESS PERIOD     32
 UBDSV1 SAVING     FLOW-JA-FACE ON UNIT   1016 AT TIME STEP      4, STRESS PERIOD     32
 UBDSV06 SAVING              RCH IN MODEL TEST_TRANS       PACKAGE TEST_TRANS      CONNECTED TO MODEL TEST_TRANS       PACKAGE RCHA             ON UNIT   1016 AT TIME STEP      4, STRESS PERIOD     32
 UBDSV06 SAVING              CHD IN MODEL TEST_TRANS       PACKAGE TEST_TRANS      CONNECTED TO MODEL TEST_TRANS       PACKAGE CHD              ON UNIT   1016 AT TIME STEP      4, STRESS PERIOD     32

 HEAD WILL BE SAVED ON UNIT 1017 AT END OF TIME STEP    4, STRESS PERIOD   32
 UBDSV1 SAVING           STO-SS ON UNIT   1016 AT TIME STEP      5, STRESS PERIOD     32
 UBDSV1 SAVING           STO-SY ON UNIT   1016 AT TIME STEP      5, STRESS PERIOD     32
 UBDSV1 SAVING     FLOW-JA-FACE ON UNIT   1016 AT TIME STEP      5, STRESS PERIOD     32
 UBDSV06 SAVING              RCH IN MODEL TEST_TRANS       PACKAGE TEST_TRANS      CONNECTED TO MODEL TEST_TRANS       PACKAGE RCHA             ON UNIT   1016 AT TIME STEP      5, STRESS PERIOD     32
 UBDSV06 SAVING              CHD IN MODEL TEST_TRANS       PACKAGE TEST_TRANS      CONNECTED TO MODEL TEST_TRANS       PACKAGE CHD              ON UNIT   1016 AT TIME STEP      5, STRESS PERIOD     32

 HEAD WILL BE SAVED ON UNIT 1017 AT END OF TIME STEP    5, STRESS PERIOD   32
 UBDSV1 SAVING           STO-SS ON UNIT   1016 AT TIME STEP      6, STRESS PERIOD     32
 UBDSV1 SAVING           STO-SY ON UNIT   1016 AT TIME STEP      6, STRESS PERIOD     32
 UBDSV1 SAVING     FLOW-JA-FACE ON UNIT   1016 AT TIME STEP      6, STRESS PERIOD     32
 UBDSV06 SAVING              RCH IN MODEL TEST_TRANS       PACKAGE TEST_TRANS      CONNECTED TO MODEL TEST_TRANS       PACKAGE RCHA             ON UNIT   1016 AT TIME STEP      6, STRESS PERIOD     32
 UBDSV06 SAVING              CHD IN MODEL TEST_TRANS       PACKAGE TEST_TRANS      CONNECTED TO MODEL TEST_TRANS       PACKAGE CHD              ON UNIT   1016 AT TIME STEP      6, STRESS PERIOD     32

 HEAD WILL BE SAVED ON UNIT 1017 AT END OF TIME STEP    6, STRESS PERIOD   32
 UBDSV1 SAVING           STO-SS ON UNIT   1016 AT TIME STEP      7, STRESS PERIOD     32
 UBDSV1 SAVING           STO-SY ON UNIT   1016 AT TIME STEP      7, STRESS PERIOD     32
 UBDSV1 SAVING     FLOW-JA-FACE ON UNIT   1016 AT TIME STEP      7, STRESS PERIOD     32
 UBDSV06 SAVING              RCH IN MODEL TEST_TRANS       PACKAGE TEST_TRANS      CONNECTED TO MODEL TEST_TRANS       PACKAGE RCHA             ON UNIT   1016 AT TIME STEP      7, STRESS PERIOD     32
 UBDSV06 SAVING              CHD IN MODEL TEST_TRANS       PACKAGE TEST_TRANS      CONNECTED TO MODEL TEST_TRANS       PACKAGE CHD              ON UNIT   1016 AT TIME STEP      7, STRESS PERIOD     32

 HEAD WILL BE SAVED ON UNIT 1017 AT END OF TIME STEP    7, STRESS PERIOD   32
 UBDSV1 SAVING           STO-SS ON UNIT   1016 AT TIME STEP      8, STRESS PERIOD     32
 UBDSV1 SAVING           STO-SY ON UNIT   1016 AT TIME STEP      8, STRESS PERIOD     32
 UBDSV1 SAVING     FLOW-JA-FACE ON UNIT   1016 AT TIME STEP      8, STRESS PERIOD     32
 UBDSV06 SAVING              RCH IN MODEL TEST_TRANS       PACKAGE TEST_TRANS      CONNECTED TO MODEL TEST_TRANS       PACKAGE RCHA             ON UNIT   1016 AT TIME STEP      8, STRESS PERIOD     32
 UBDSV06 SAVING              CHD IN MODEL TEST_TRANS       PACKAGE TEST_TRANS      CONNECTED TO MODEL TEST_TRANS       PACKAGE CHD              ON UNIT   1016 AT TIME STEP      8, STRESS PERIOD     32

 HEAD WILL BE SAVED ON UNIT 1017 AT END OF TIME STEP    8, STRESS PERIOD   32
 UBDSV1 SAVING           STO-SS ON UNIT   1016 AT TIME STEP      9, STRESS PERIOD     32
 UBDSV1 SAVING           STO-SY ON UNIT   1016 AT TIME STEP      9, STRESS PERIOD     32
 UBDSV1 SAVING     FLOW-JA-FACE ON UNIT   1016 AT TIME STEP      9, STRESS PERIOD     32
 UBDSV06 SAVING              RCH IN MODEL TEST_TRANS       PACKAGE TEST_TRANS      CONNECTED TO MODEL TEST_TRANS       PACKAGE RCHA             ON UNIT   1016 AT TIME STEP      9, STRESS PERIOD     32
 UBDSV06 SAVING              CHD IN MODEL TEST_TRANS       PACKAGE TEST_TRANS      CONNECTED TO MODEL TEST_TRANS       PACKAGE CHD              ON UNIT   1016 AT TIME STEP      9, STRESS PERIOD     32

 HEAD WILL BE SAVED ON UNIT 1017 AT END OF TIME STEP    9, STRESS PERIOD   32
 UBDSV1 SAVING           STO-SS ON UNIT   1016 AT TIME STEP     10, STRESS PERIOD     32
 UBDSV1 SAVING           STO-SY ON UNIT   1016 AT TIME STEP     10, STRESS PERIOD     32
 UBDSV1 SAVING     FLOW-JA-FACE ON UNIT   1016 AT TIME STEP     10, STRESS PERIOD     32
 UBDSV06 SAVING              RCH IN MODEL TEST_TRANS       PACKAGE TEST_TRANS      CONNECTED TO MODEL TEST_TRANS       PACKAGE RCHA             ON UNIT   1016 AT TIME STEP     10, STRESS PERIOD     32
 UBDSV06 SAVING              CHD IN MODEL TEST_TRANS       PACKAGE TEST_TRANS      CONNECTED TO MODEL TEST_TRANS       PACKAGE CHD              ON UNIT   1016 AT TIME STEP     10, STRESS PERIOD     32
1
  HEAD IN LAYER   1 AT END OF TIME STEP  10 IN STRESS PERIOD   32
  ---------------------------------------------------------------------------

            1           2           3           4           5           6           7           8           9          10
           11          12          13          14          15          16          17          18          19          20
           21          22          23          24          25          26          27          28          29          30
 ........................................................................................................................
   1    27.63       27.62       27.62       27.60       27.59       27.57       27.54       27.51       27.48       27.44    
        27.40       27.35       27.30       27.24       27.17       27.10       27.03       26.95       26.86       26.76    
        26.66       26.55       26.43       26.30       26.16       26.01       25.84       25.66       25.46       25.23    
   2    27.63       27.62       27.62       27.60       27.59       27.57       27.54       27.51       27.48       27.44    
        27.40       27.35       27.30       27.24       27.17       27.10       27.03       26.95       26.86       26.76    
        26.66       26.55       26.43       26.30       26.16       26.01       25.84       25.66       25.46       25.23    
   3    27.63       27.62       27.62       27.60       27.59       27.57       27.54       27.51       27.48       27.44    
        27.40       27.35       27.30       27.24       27.17       27.10       27.03       26.95       26.86       26.76    
        26.66       26.55       26.43       26.30       26.16       26.01       25.84       25.66       25.46       25.23    
   4    27.63       27.62       27.62       27.60       27.59       27.57       27.54       27.51       27.48       27.44    
        27.40       27.35       27.30       27.24       27.17       27.10       27.03       26.95       26.86       26.76    
        26.66       26.55       26.43       26.30       26.16       26.01       25.84       25.66       25.46       25.23    
   5    27.63       27.62       27.62       27.60       27.59       27.57       27.54       27.51       27.48       27.44    
        27.40       27.35       27.30       27.24       27.17       27.10       27.03       26.95       26.86       26.76    
        26.66       26.55       26.43       26.30       26.16       26.01       25.84       25.66       25.46       25.23    
   6    27.63       27.62       27.62       27.60       27.59       27.57       27.54       27.51       27.48       27.44    
        27.40       27.35       27.30       27.24       27.17       27.10       27.03       26.95       26.86       26.76    
        26.66       26.55       26.43       26.30       26.16       26.01       25.84       25.66       25.46       25.23    
   7    27.63       27.62       27.62       27.60       27.59       27.57       27.54       27.51       27.48       27.44    
        27.40       27.35       27.30       27.24       27.17       27.10       27.03       26.95       26.86       26.76    
        26.66       26.55       26.43       26.30       26.16       26.01       25.84       25.66       25.46       25.23    
   8    27.63       27.62       27.62       27.60       27.59       27.57       27.54       27.51       27.48       27.44    
        27.40       27.35       27.30       27.24       27.17       27.10       27.03       26.95       26.86       26.76    
        26.66       26.55       26.43       26.30       26.16       26.01       25.84       25.66       25.46       25.23    
   9    27.63       27.62       27.62       27.60       27.59       27.57       27.54       27.51       27.48       27.44    
        27.40       27.35       27.30       27.24       27.17       27.10       27.03       26.95       26.86       26.76    
        26.66       26.55       26.43       26.30       26.16       26.01       25.84       25.66       25.46       25.23    
  10    27.63       27.62       27.62       27.60       27.59       27.57       27.54       27.51       27.48       27.44    
        27.40       27.35       27.30       27.24       27.17       27.10       27.03       26.95       26.86       26.76    
        26.66       26.55       26.43       26.30       26.16       26.01       25.84       25.66       25.46       25.23    
  11    27.63       27.62       27.62       27.60       27.59       27.57       27.54       27.51       27.48       27.44    
        27.40       27.35       27.30       27.24       27.17       27.10       27.03       26.95       26.86       26.76    
        26.66       26.55       26.43       26.30       26.16       26.01       25.84       25.66       25.46       25.23    
  12    27.63       27.62       27.62       27.60       27.59       27.57       27.54       27.51       27.48       27.44    
        27.40       27.35       27.30       27.24       27.17       27.10       27.03       26.95       26.86       26.76    
        26.66       26.55       26.43       26.30       26.16       26.01       25.84       25.66       25.46       25.23    
  13    27.63       27.62       27.62       27.60       27.59       27.57       27.54       27.51       27.48       27.44    
        27.40       27.35       27.30       27.24       27.17       27.10       27.03       26.95       26.86       26.76    
        26.66       26.55       26.43       26.30       26.16       26.01       25.84       25.66       25.46       25.23    
  14    27.63       27.62       27.62       27.60       27.59       27.57       27.54       27.51       27.48       27.44    
        27.40       27.35       27.30       27.24       27.17       27.10       27.03       26.95       26.86       26.76    
        26.66       26.55       26.43       26.30       26.16       26.01       25.84       25.66       25.46       25.23    
  15    27.63       27.62       27.62       27.60       27.59       27.57       27.54       27.51       27.48       27.44    
        27.40       27.35       27.30       27.24       27.17       27.10       27.03       26.95       26.86       26.76    
        26.66       26.55       26.43       26.30       26.16       26.01       25.84       25.66       25.46       25.23    
  16    27.63       27.62       27.62       27.60       27.59       27.57       27.54       27.51       27.48       27.44    
        27.40       27.35       27.30       27.24       27.17       27.10       27.03       26.95       26.86       26.76    
        26.66       26.55       26.43       26.30       26.16       26.01       25.84       25.66       25.46       25.23    
  17    27.63       27.62       27.62       27.60       27.59       27.57       27.54       27.51       27.48       27.44    
        27.40       27.35       27.30       27.24       27.17       27.10       27.03       26.95       26.86       26.76    
        26.66       26.55       26.43       26.30       26.16       26.01       25.84       25.66       25.46       25.23    
  18    27.63       27.62       27.62       27.60       27.59       27.57       27.54       27.51       27.48       27.44    
        27.40       27.35       27.30       27.24       27.17       27.10       27.03       26.95       26.86       26.76    
        26.66       26.55       26.43       26.30       26.16       26.01       25.84       25.66       25.46       25.23    
  19    27.63       27.62       27.62       27.60       27.59       27.57       27.54       27.51       27.48       27.44    
        27.40       27.35       27.30       27.24       27.17       27.10       27.03       26.95       26.86       26.76    
        26.66       26.55       26.43       26.30       26.16       26.01       25.84       25.66       25.46       25.23    
  20    27.63       27.62       27.62       27.60       27.59       27.57       27.54       27.51       27.48       27.44    
        27.40       27.35       27.30       27.24       27.17       27.10       27.03       26.95       26.86       26.76    
        26.66       26.55       26.43       26.30       26.16       26.01       25.84       25.66       25.46       25.23    
  21    27.63       27.62       27.62       27.60       27.59       27.57       27.54       27.51       27.48       27.44    
        27.40       27.35       27.30       27.24       27.17       27.10       27.03       26.95       26.86       26.76    
        26.66       26.55       26.43       26.30       26.16       26.01       25.84       25.66       25.46       25.23    
  22    27.63       27.62       27.62       27.60       27.59       27.57       27.54       27.51       27.48       27.44    
        27.40       27.35       27.30       27.24       27.17       27.10       27.03       26.95       26.86       26.76    
        26.66       26.55       26.43       26.30       26.16       26.01       25.84       25.66       25.46       25.23    
  23    27.63       27.62       27.62       27.60       27.59       27.57       27.54       27.51       27.48       27.44    
        27.40       27.35       27.30       27.24       27.17       27.10       27.03       26.95       26.86       26.76    
        26.66       26.55       26.43       26.30       26.16       26.01       25.84       25.66       25.46       25.23    
  24    27.63       27.62       27.62       27.60       27.59       27.57       27.54       27.51       27.48       27.44    
        27.40       27.35       27.30       27.24       27.17       27.10       27.03       26.95       26.86       26.76    
        26.66       26.55       26.43       26.30       26.16       26.01       25.84       25.66       25.46       25.23    
  25    27.63       27.62       27.62       27.60       27.59       27.57       27.54       27.51       27.48       27.44    
        27.40       27.35       27.30       27.24       27.17       27.10       27.03       26.95       26.86       26.76    
        26.66       26.55       26.43       26.30       26.16       26.01       25.84       25.66       25.46       25.23    
  26    27.63       27.62       27.62       27.60       27.59       27.57       27.54       27.51       27.48       27.44    
        27.40       27.35       27.30       27.24       27.17       27.10       27.03       26.95       26.86       26.76    
        26.66       26.55       26.43       26.30       26.16       26.01       25.84       25.66       25.46       25.23    
  27    27.63       27.62       27.62       27.60       27.59       27.57       27.54       27.51       27.48       27.44    
        27.40       27.35       27.30       27.24       27.17       27.10       27.03       26.95       26.86       26.76    
        26.66       26.55       26.43       26.30       26.16       26.01       25.84       25.66       25.46       25.23    
  28    27.63       27.62       27.62       27.60       27.59       27.57       27.54       27.51       27.48       27.44    
        27.40       27.35       27.30       27.24       27.17       27.10       27.03       26.95       26.86       26.76    
        26.66       26.55       26.43       26.30       26.16       26.01       25.84       25.66       25.46       25.23    
  29    27.63       27.62       27.62       27.60       27.59       27.57       27.54       27.51       27.48       27.44    
        27.40       27.35       27.30       27.24       27.17       27.10       27.03       26.95       26.86       26.76    
        26.66       26.55       26.43       26.30       26.16       26.01       25.84       25.66       25.46       25.23    
  30    27.63       27.62       27.62       27.60       27.59       27.57       27.54       27.51       27.48       27.44    
        27.40       27.35       27.30       27.24       27.17       27.10       27.03       26.95       26.86       26.76    
        26.66       26.55       26.43       26.30       26.16       26.01       25.84       25.66       25.46       25.23    

 HEAD WILL BE SAVED ON UNIT 1017 AT END OF TIME STEP   10, STRESS PERIOD   32


  VOLUME BUDGET FOR ENTIRE MODEL AT END OF TIME STEP   10, STRESS PERIOD  32
  ---------------------------------------------------------------------------------------------------

     CUMULATIVE VOLUME      L**3       RATES FOR THIS TIME STEP      L**3/T          PACKAGE NAME    
     ------------------                 ------------------------                     ----------------

           IN:                                      IN:
           ---                                      ---
              STO-SS =          54.6590                STO-SS =       6.5326E-02     STORAGE         
              STO-SY =       34626.7858                STO-SY =          41.8296     STORAGE         
                 RCH =      148615.1314                   RCH =          95.3424     RCHA            
                 CHD =           0.0000                   CHD =           0.0000     CHD             

            TOTAL IN =      183296.5763              TOTAL IN =         137.2373

          OUT:                                     OUT:
          ----                                     ----
              STO-SS =          33.3105                STO-SS =           0.0000     STORAGE         
              STO-SY =       21385.6120                STO-SY =           0.0000     STORAGE         
                 RCH =           0.0000                   RCH =           0.0000     RCHA            
                 CHD =      161876.6179                   CHD =         137.2347     CHD             

           TOTAL OUT =      183295.5405             TOTAL OUT =         137.2347

            IN - OUT =           1.0358              IN - OUT =       2.6309E-03

 PERCENT DISCREPANCY =           0.00     PERCENT DISCREPANCY =           0.00




         TIME SUMMARY AT END OF TIME STEP   10 IN STRESS PERIOD   32
                    SECONDS     MINUTES      HOURS       DAYS        YEARS
                    -----------------------------------------------------------
   TIME STEP LENGTH 2.59200E+05  4320.0      72.000      3.0000     8.21355E-03
 STRESS PERIOD TIME 2.59200E+06  43200.      720.00      30.000     8.21355E-02
         TOTAL TIME 8.04384E+07 1.34064E+06  22344.      931.00      2.5489    

 OUTPUT CONTROL FOR STRESS PERIOD 33 IS REPEATED USING SETTINGS FROM A PREVIOUS STRESS PERIOD.


 STRESS PERIOD 33 IS TRANSIENT


                 RECHARGE =  0.1643840E-02
 UBDSV1 SAVING           STO-SS ON UNIT   1016 AT TIME STEP      1, STRESS PERIOD     33
 UBDSV1 SAVING           STO-SY ON UNIT   1016 AT TIME STEP      1, STRESS PERIOD     33
 UBDSV1 SAVING     FLOW-JA-FACE ON UNIT   1016 AT TIME STEP      1, STRESS PERIOD     33
 UBDSV06 SAVING              RCH IN MODEL TEST_TRANS       PACKAGE TEST_TRANS      CONNECTED TO MODEL TEST_TRANS       PACKAGE RCHA             ON UNIT   1016 AT TIME STEP      1, STRESS PERIOD     33
 UBDSV06 SAVING              CHD IN MODEL TEST_TRANS       PACKAGE TEST_TRANS      CONNECTED TO MODEL TEST_TRANS       PACKAGE CHD              ON UNIT   1016 AT TIME STEP      1, STRESS PERIOD     33
1
  HEAD IN LAYER   1 AT END OF TIME STEP   1 IN STRESS PERIOD   33
  ---------------------------------------------------------------------------

            1           2           3           4           5           6           7           8           9          10
           11          12          13          14          15          16          17          18          19          20
           21          22          23          24          25          26          27          28          29          30
 ........................................................................................................................
   1    27.63       27.62       27.62       27.60       27.59       27.57       27.54       27.51       27.48       27.44    
        27.40       27.35       27.30       27.24       27.17       27.10       27.03       26.95       26.86       26.76    
        26.66       26.55       26.43       26.30       26.16       26.01       25.83       25.64       25.42       25.15    
   2    27.63       27.62       27.62       27.60       27.59       27.57       27.54       27.51       27.48       27.44    
        27.40       27.35       27.30       27.24       27.17       27.10       27.03       26.95       26.86       26.76    
        26.66       26.55       26.43       26.30       26.16       26.01       25.83       25.64       25.42       25.15    
   3    27.63       27.62       27.62       27.60       27.59       27.57       27.54       27.51       27.48       27.44    
        27.40       27.35       27.30       27.24       27.17       27.10       27.03       26.95       26.86       26.76    
        26.66       26.55       26.43       26.30       26.16       26.01       25.83       25.64       25.42       25.15    
   4    27.63       27.62       27.62       27.60       27.59       27.57       27.54       27.51       27.48       27.44    
        27.40       27.35       27.30       27.24       27.17       27.10       27.03       26.95       26.86       26.76    
        26.66       26.55       26.43       26.30       26.16       26.01       25.83       25.64       25.42       25.15    
   5    27.63       27.62       27.62       27.60       27.59       27.57       27.54       27.51       27.48       27.44    
        27.40       27.35       27.30       27.24       27.17       27.10       27.03       26.95       26.86       26.76    
        26.66       26.55       26.43       26.30       26.16       26.01       25.83       25.64       25.42       25.15    
   6    27.63       27.62       27.62       27.60       27.59       27.57       27.54       27.51       27.48       27.44    
        27.40       27.35       27.30       27.24       27.17       27.10       27.03       26.95       26.86       26.76    
        26.66       26.55       26.43       26.30       26.16       26.01       25.83       25.64       25.42       25.15    
   7    27.63       27.62       27.62       27.60       27.59       27.57       27.54       27.51       27.48       27.44    
        27.40       27.35       27.30       27.24       27.17       27.10       27.03       26.95       26.86       26.76    
        26.66       26.55       26.43       26.30       26.16       26.01       25.83       25.64       25.42       25.15    
   8    27.63       27.62       27.62       27.60       27.59       27.57       27.54       27.51       27.48       27.44    
        27.40       27.35       27.30       27.24       27.17       27.10       27.03       26.95       26.86       26.76    
        26.66       26.55       26.43       26.30       26.16       26.01       25.83       25.64       25.42       25.15    
   9    27.63       27.62       27.62       27.60       27.59       27.57       27.54       27.51       27.48       27.44    
        27.40       27.35       27.30       27.24       27.17       27.10       27.03       26.95       26.86       26.76    
        26.66       26.55       26.43       26.30       26.16       26.01       25.83       25.64       25.42       25.15    
  10    27.63       27.62       27.62       27.60       27.59       27.57       27.54       27.51       27.48       27.44    
        27.40       27.35       27.30       27.24       27.17       27.10       27.03       26.95       26.86       26.76    
        26.66       26.55       26.43       26.30       26.16       26.01       25.83       25.64       25.42       25.15    
  11    27.63       27.62       27.62       27.60       27.59       27.57       27.54       27.51       27.48       27.44    
        27.40       27.35       27.30       27.24       27.17       27.10       27.03       26.95       26.86       26.76    
        26.66       26.55       26.43       26.30       26.16       26.01       25.83       25.64       25.42       25.15    
  12    27.63       27.62       27.62       27.60       27.59       27.57       27.54       27.51       27.48       27.44    
        27.40       27.35       27.30       27.24       27.17       27.10       27.03       26.95       26.86       26.76    
        26.66       26.55       26.43       26.30       26.16       26.01       25.83       25.64       25.42       25.15    
  13    27.63       27.62       27.62       27.60       27.59       27.57       27.54       27.51       27.48       27.44    
        27.40       27.35       27.30       27.24       27.17       27.10       27.03       26.95       26.86       26.76    
        26.66       26.55       26.43       26.30       26.16       26.01       25.83       25.64       25.42       25.15    
  14    27.63       27.62       27.62       27.60       27.59       27.57       27.54       27.51       27.48       27.44    
        27.40       27.35       27.30       27.24       27.17       27.10       27.03       26.95       26.86       26.76    
        26.66       26.55       26.43       26.30       26.16       26.01       25.83       25.64       25.42       25.15    
  15    27.63       27.62       27.62       27.60       27.59       27.57       27.54       27.51       27.48       27.44    
        27.40       27.35       27.30       27.24       27.17       27.10       27.03       26.95       26.86       26.76    
        26.66       26.55       26.43       26.30       26.16       26.01       25.83       25.64       25.42       25.15    
  16    27.63       27.62       27.62       27.60       27.59       27.57       27.54       27.51       27.48       27.44    
        27.40       27.35       27.30       27.24       27.17       27.10       27.03       26.95       26.86       26.76    
        26.66       26.55       26.43       26.30       26.16       26.01       25.83       25.64       25.42       25.15    
  17    27.63       27.62       27.62       27.60       27.59       27.57       27.54       27.51       27.48       27.44    
        27.40       27.35       27.30       27.24       27.17       27.10       27.03       26.95       26.86       26.76    
        26.66       26.55       26.43       26.30       26.16       26.01       25.83       25.64       25.42       25.15    
  18    27.63       27.62       27.62       27.60       27.59       27.57       27.54       27.51       27.48       27.44    
        27.40       27.35       27.30       27.24       27.17       27.10       27.03       26.95       26.86       26.76    
        26.66       26.55       26.43       26.30       26.16       26.01       25.83       25.64       25.42       25.15    
  19    27.63       27.62       27.62       27.60       27.59       27.57       27.54       27.51       27.48       27.44    
        27.40       27.35       27.30       27.24       27.17       27.10       27.03       26.95       26.86       26.76    
        26.66       26.55       26.43       26.30       26.16       26.01       25.83       25.64       25.42       25.15    
  20    27.63       27.62       27.62       27.60       27.59       27.57       27.54       27.51       27.48       27.44    
        27.40       27.35       27.30       27.24       27.17       27.10       27.03       26.95       26.86       26.76    
        26.66       26.55       26.43       26.30       26.16       26.01       25.83       25.64       25.42       25.15    
  21    27.63       27.62       27.62       27.60       27.59       27.57       27.54       27.51       27.48       27.44    
        27.40       27.35       27.30       27.24       27.17       27.10       27.03       26.95       26.86       26.76    
        26.66       26.55       26.43       26.30       26.16       26.01       25.83       25.64       25.42       25.15    
  22    27.63       27.62       27.62       27.60       27.59       27.57       27.54       27.51       27.48       27.44    
        27.40       27.35       27.30       27.24       27.17       27.10       27.03       26.95       26.86       26.76    
        26.66       26.55       26.43       26.30       26.16       26.01       25.83       25.64       25.42       25.15    
  23    27.63       27.62       27.62       27.60       27.59       27.57       27.54       27.51       27.48       27.44    
        27.40       27.35       27.30       27.24       27.17       27.10       27.03       26.95       26.86       26.76    
        26.66       26.55       26.43       26.30       26.16       26.01       25.83       25.64       25.42       25.15    
  24    27.63       27.62       27.62       27.60       27.59       27.57       27.54       27.51       27.48       27.44    
        27.40       27.35       27.30       27.24       27.17       27.10       27.03       26.95       26.86       26.76    
        26.66       26.55       26.43       26.30       26.16       26.01       25.83       25.64       25.42       25.15    
  25    27.63       27.62       27.62       27.60       27.59       27.57       27.54       27.51       27.48       27.44    
        27.40       27.35       27.30       27.24       27.17       27.10       27.03       26.95       26.86       26.76    
        26.66       26.55       26.43       26.30       26.16       26.01       25.83       25.64       25.42       25.15    
  26    27.63       27.62       27.62       27.60       27.59       27.57       27.54       27.51       27.48       27.44    
        27.40       27.35       27.30       27.24       27.17       27.10       27.03       26.95       26.86       26.76    
        26.66       26.55       26.43       26.30       26.16       26.01       25.83       25.64       25.42       25.15    
  27    27.63       27.62       27.62       27.60       27.59       27.57       27.54       27.51       27.48       27.44    
        27.40       27.35       27.30       27.24       27.17       27.10       27.03       26.95       26.86       26.76    
        26.66       26.55       26.43       26.30       26.16       26.01       25.83       25.64       25.42       25.15    
  28    27.63       27.62       27.62       27.60       27.59       27.57       27.54       27.51       27.48       27.44    
        27.40       27.35       27.30       27.24       27.17       27.10       27.03       26.95       26.86       26.76    
        26.66       26.55       26.43       26.30       26.16       26.01       25.83       25.64       25.42       25.15    
  29    27.63       27.62       27.62       27.60       27.59       27.57       27.54       27.51       27.48       27.44    
        27.40       27.35       27.30       27.24       27.17       27.10       27.03       26.95       26.86       26.76    
        26.66       26.55       26.43       26.30       26.16       26.01       25.83       25.64       25.42       25.15    
  30    27.63       27.62       27.62       27.60       27.59       27.57       27.54       27.51       27.48       27.44    
        27.40       27.35       27.30       27.24       27.17       27.10       27.03       26.95       26.86       26.76    
        26.66       26.55       26.43       26.30       26.16       26.01       25.83       25.64       25.42       25.15    

 HEAD WILL BE SAVED ON UNIT 1017 AT END OF TIME STEP    1, STRESS PERIOD   33



         TIME SUMMARY AT END OF TIME STEP    1 IN STRESS PERIOD   33
                    SECONDS     MINUTES      HOURS       DAYS        YEARS
                    -----------------------------------------------------------
   TIME STEP LENGTH 2.59200E+05  4320.0      72.000      3.0000     8.21355E-03
 STRESS PERIOD TIME 2.59200E+05  4320.0      72.000      3.0000     8.21355E-03
         TOTAL TIME 8.06976E+07 1.34496E+06  22416.      934.00      2.5572    
 UBDSV1 SAVING           STO-SS ON UNIT   1016 AT TIME STEP      2, STRESS PERIOD     33
 UBDSV1 SAVING           STO-SY ON UNIT   1016 AT TIME STEP      2, STRESS PERIOD     33
 UBDSV1 SAVING     FLOW-JA-FACE ON UNIT   1016 AT TIME STEP      2, STRESS PERIOD     33
 UBDSV06 SAVING              RCH IN MODEL TEST_TRANS       PACKAGE TEST_TRANS      CONNECTED TO MODEL TEST_TRANS       PACKAGE RCHA             ON UNIT   1016 AT TIME STEP      2, STRESS PERIOD     33
 UBDSV06 SAVING              CHD IN MODEL TEST_TRANS       PACKAGE TEST_TRANS      CONNECTED TO MODEL TEST_TRANS       PACKAGE CHD              ON UNIT   1016 AT TIME STEP      2, STRESS PERIOD     33

 HEAD WILL BE SAVED ON UNIT 1017 AT END OF TIME STEP    2, STRESS PERIOD   33
 UBDSV1 SAVING           STO-SS ON UNIT   1016 AT TIME STEP      3, STRESS PERIOD     33
 UBDSV1 SAVING           STO-SY ON UNIT   1016 AT TIME STEP      3, STRESS PERIOD     33
 UBDSV1 SAVING     FLOW-JA-FACE ON UNIT   1016 AT TIME STEP      3, STRESS PERIOD     33
 UBDSV06 SAVING              RCH IN MODEL TEST_TRANS       PACKAGE TEST_TRANS      CONNECTED TO MODEL TEST_TRANS       PACKAGE RCHA             ON UNIT   1016 AT TIME STEP      3, STRESS PERIOD     33
 UBDSV06 SAVING              CHD IN MODEL TEST_TRANS       PACKAGE TEST_TRANS      CONNECTED TO MODEL TEST_TRANS       PACKAGE CHD              ON UNIT   1016 AT TIME STEP      3, STRESS PERIOD     33

 HEAD WILL BE SAVED ON UNIT 1017 AT END OF TIME STEP    3, STRESS PERIOD   33
 UBDSV1 SAVING           STO-SS ON UNIT   1016 AT TIME STEP      4, STRESS PERIOD     33
 UBDSV1 SAVING           STO-SY ON UNIT   1016 AT TIME STEP      4, STRESS PERIOD     33
 UBDSV1 SAVING     FLOW-JA-FACE ON UNIT   1016 AT TIME STEP      4, STRESS PERIOD     33
 UBDSV06 SAVING              RCH IN MODEL TEST_TRANS       PACKAGE TEST_TRANS      CONNECTED TO MODEL TEST_TRANS       PACKAGE RCHA             ON UNIT   1016 AT TIME STEP      4, STRESS PERIOD     33
 UBDSV06 SAVING              CHD IN MODEL TEST_TRANS       PACKAGE TEST_TRANS      CONNECTED TO MODEL TEST_TRANS       PACKAGE CHD              ON UNIT   1016 AT TIME STEP      4, STRESS PERIOD     33

 HEAD WILL BE SAVED ON UNIT 1017 AT END OF TIME STEP    4, STRESS PERIOD   33
 UBDSV1 SAVING           STO-SS ON UNIT   1016 AT TIME STEP      5, STRESS PERIOD     33
 UBDSV1 SAVING           STO-SY ON UNIT   1016 AT TIME STEP      5, STRESS PERIOD     33
 UBDSV1 SAVING     FLOW-JA-FACE ON UNIT   1016 AT TIME STEP      5, STRESS PERIOD     33
 UBDSV06 SAVING              RCH IN MODEL TEST_TRANS       PACKAGE TEST_TRANS      CONNECTED TO MODEL TEST_TRANS       PACKAGE RCHA             ON UNIT   1016 AT TIME STEP      5, STRESS PERIOD     33
 UBDSV06 SAVING              CHD IN MODEL TEST_TRANS       PACKAGE TEST_TRANS      CONNECTED TO MODEL TEST_TRANS       PACKAGE CHD              ON UNIT   1016 AT TIME STEP      5, STRESS PERIOD     33

 HEAD WILL BE SAVED ON UNIT 1017 AT END OF TIME STEP    5, STRESS PERIOD   33
 UBDSV1 SAVING           STO-SS ON UNIT   1016 AT TIME STEP      6, STRESS PERIOD     33
 UBDSV1 SAVING           STO-SY ON UNIT   1016 AT TIME STEP      6, STRESS PERIOD     33
 UBDSV1 SAVING     FLOW-JA-FACE ON UNIT   1016 AT TIME STEP      6, STRESS PERIOD     33
 UBDSV06 SAVING              RCH IN MODEL TEST_TRANS       PACKAGE TEST_TRANS      CONNECTED TO MODEL TEST_TRANS       PACKAGE RCHA             ON UNIT   1016 AT TIME STEP      6, STRESS PERIOD     33
 UBDSV06 SAVING              CHD IN MODEL TEST_TRANS       PACKAGE TEST_TRANS      CONNECTED TO MODEL TEST_TRANS       PACKAGE CHD              ON UNIT   1016 AT TIME STEP      6, STRESS PERIOD     33

 HEAD WILL BE SAVED ON UNIT 1017 AT END OF TIME STEP    6, STRESS PERIOD   33
 UBDSV1 SAVING           STO-SS ON UNIT   1016 AT TIME STEP      7, STRESS PERIOD     33
 UBDSV1 SAVING           STO-SY ON UNIT   1016 AT TIME STEP      7, STRESS PERIOD     33
 UBDSV1 SAVING     FLOW-JA-FACE ON UNIT   1016 AT TIME STEP      7, STRESS PERIOD     33
 UBDSV06 SAVING              RCH IN MODEL TEST_TRANS       PACKAGE TEST_TRANS      CONNECTED TO MODEL TEST_TRANS       PACKAGE RCHA             ON UNIT   1016 AT TIME STEP      7, STRESS PERIOD     33
 UBDSV06 SAVING              CHD IN MODEL TEST_TRANS       PACKAGE TEST_TRANS      CONNECTED TO MODEL TEST_TRANS       PACKAGE CHD              ON UNIT   1016 AT TIME STEP      7, STRESS PERIOD     33

 HEAD WILL BE SAVED ON UNIT 1017 AT END OF TIME STEP    7, STRESS PERIOD   33
 UBDSV1 SAVING           STO-SS ON UNIT   1016 AT TIME STEP      8, STRESS PERIOD     33
 UBDSV1 SAVING           STO-SY ON UNIT   1016 AT TIME STEP      8, STRESS PERIOD     33
 UBDSV1 SAVING     FLOW-JA-FACE ON UNIT   1016 AT TIME STEP      8, STRESS PERIOD     33
 UBDSV06 SAVING              RCH IN MODEL TEST_TRANS       PACKAGE TEST_TRANS      CONNECTED TO MODEL TEST_TRANS       PACKAGE RCHA             ON UNIT   1016 AT TIME STEP      8, STRESS PERIOD     33
 UBDSV06 SAVING              CHD IN MODEL TEST_TRANS       PACKAGE TEST_TRANS      CONNECTED TO MODEL TEST_TRANS       PACKAGE CHD              ON UNIT   1016 AT TIME STEP      8, STRESS PERIOD     33

 HEAD WILL BE SAVED ON UNIT 1017 AT END OF TIME STEP    8, STRESS PERIOD   33
 UBDSV1 SAVING           STO-SS ON UNIT   1016 AT TIME STEP      9, STRESS PERIOD     33
 UBDSV1 SAVING           STO-SY ON UNIT   1016 AT TIME STEP      9, STRESS PERIOD     33
 UBDSV1 SAVING     FLOW-JA-FACE ON UNIT   1016 AT TIME STEP      9, STRESS PERIOD     33
 UBDSV06 SAVING              RCH IN MODEL TEST_TRANS       PACKAGE TEST_TRANS      CONNECTED TO MODEL TEST_TRANS       PACKAGE RCHA             ON UNIT   1016 AT TIME STEP      9, STRESS PERIOD     33
 UBDSV06 SAVING              CHD IN MODEL TEST_TRANS       PACKAGE TEST_TRANS      CONNECTED TO MODEL TEST_TRANS       PACKAGE CHD              ON UNIT   1016 AT TIME STEP      9, STRESS PERIOD     33

 HEAD WILL BE SAVED ON UNIT 1017 AT END OF TIME STEP    9, STRESS PERIOD   33
 UBDSV1 SAVING           STO-SS ON UNIT   1016 AT TIME STEP     10, STRESS PERIOD     33
 UBDSV1 SAVING           STO-SY ON UNIT   1016 AT TIME STEP     10, STRESS PERIOD     33
 UBDSV1 SAVING     FLOW-JA-FACE ON UNIT   1016 AT TIME STEP     10, STRESS PERIOD     33
 UBDSV06 SAVING              RCH IN MODEL TEST_TRANS       PACKAGE TEST_TRANS      CONNECTED TO MODEL TEST_TRANS       PACKAGE RCHA             ON UNIT   1016 AT TIME STEP     10, STRESS PERIOD     33
 UBDSV06 SAVING              CHD IN MODEL TEST_TRANS       PACKAGE TEST_TRANS      CONNECTED TO MODEL TEST_TRANS       PACKAGE CHD              ON UNIT   1016 AT TIME STEP     10, STRESS PERIOD     33
1
  HEAD IN LAYER   1 AT END OF TIME STEP  10 IN STRESS PERIOD   33
  ---------------------------------------------------------------------------

            1           2           3           4           5           6           7           8           9          10
           11          12          13          14          15          16          17          18          19          20
           21          22          23          24          25          26          27          28          29          30
 ........................................................................................................................
   1    27.63       27.62       27.62       27.60       27.59       27.57       27.54       27.51       27.48       27.44    
        27.39       27.35       27.29       27.23       27.17       27.10       27.03       26.94       26.85       26.76    
        26.65       26.54       26.42       26.29       26.14       25.98       25.81       25.61       25.40       25.15    
   2    27.63       27.62       27.62       27.60       27.59       27.57       27.54       27.51       27.48       27.44    
        27.39       27.35       27.29       27.23       27.17       27.10       27.03       26.94       26.85       26.76    
        26.65       26.54       26.42       26.29       26.14       25.98       25.81       25.61       25.40       25.15    
   3    27.63       27.62       27.62       27.60       27.59       27.57       27.54       27.51       27.48       27.44    
        27.39       27.35       27.29       27.23       27.17       27.10       27.03       26.94       26.85       26.76    
        26.65       26.54       26.42       26.29       26.14       25.98       25.81       25.61       25.40       25.15    
   4    27.63       27.62       27.62       27.60       27.59       27.57       27.54       27.51       27.48       27.44    
        27.39       27.35       27.29       27.23       27.17       27.10       27.03       26.94       26.85       26.76    
        26.65       26.54       26.42       26.29       26.14       25.98       25.81       25.61       25.40       25.15    
   5    27.63       27.62       27.62       27.60       27.59       27.57       27.54       27.51       27.48       27.44    
        27.39       27.35       27.29       27.23       27.17       27.10       27.03       26.94       26.85       26.76    
        26.65       26.54       26.42       26.29       26.14       25.98       25.81       25.61       25.40       25.15    
   6    27.63       27.62       27.62       27.60       27.59       27.57       27.54       27.51       27.48       27.44    
        27.39       27.35       27.29       27.23       27.17       27.10       27.03       26.94       26.85       26.76    
        26.65       26.54       26.42       26.29       26.14       25.98       25.81       25.61       25.40       25.15    
   7    27.63       27.62       27.62       27.60       27.59       27.57       27.54       27.51       27.48       27.44    
        27.39       27.35       27.29       27.23       27.17       27.10       27.03       26.94       26.85       26.76    
        26.65       26.54       26.42       26.29       26.14       25.98       25.81       25.61       25.40       25.15    
   8    27.63       27.62       27.62       27.60       27.59       27.57       27.54       27.51       27.48       27.44    
        27.39       27.35       27.29       27.23       27.17       27.10       27.03       26.94       26.85       26.76    
        26.65       26.54       26.42       26.29       26.14       25.98       25.81       25.61       25.40       25.15    
   9    27.63       27.62       27.62       27.60       27.59       27.57       27.54       27.51       27.48       27.44    
        27.39       27.35       27.29       27.23       27.17       27.10       27.03       26.94       26.85       26.76    
        26.65       26.54       26.42       26.29       26.14       25.98       25.81       25.61       25.40       25.15    
  10    27.63       27.62       27.62       27.60       27.59       27.57       27.54       27.51       27.48       27.44    
        27.39       27.35       27.29       27.23       27.17       27.10       27.03       26.94       26.85       26.76    
        26.65       26.54       26.42       26.29       26.14       25.98       25.81       25.61       25.40       25.15    
  11    27.63       27.62       27.62       27.60       27.59       27.57       27.54       27.51       27.48       27.44    
        27.39       27.35       27.29       27.23       27.17       27.10       27.03       26.94       26.85       26.76    
        26.65       26.54       26.42       26.29       26.14       25.98       25.81       25.61       25.40       25.15    
  12    27.63       27.62       27.62       27.60       27.59       27.57       27.54       27.51       27.48       27.44    
        27.39       27.35       27.29       27.23       27.17       27.10       27.03       26.94       26.85       26.76    
        26.65       26.54       26.42       26.29       26.14       25.98       25.81       25.61       25.40       25.15    
  13    27.63       27.62       27.62       27.60       27.59       27.57       27.54       27.51       27.48       27.44    
        27.39       27.35       27.29       27.23       27.17       27.10       27.03       26.94       26.85       26.76    
        26.65       26.54       26.42       26.29       26.14       25.98       25.81       25.61       25.40       25.15    
  14    27.63       27.62       27.62       27.60       27.59       27.57       27.54       27.51       27.48       27.44    
        27.39       27.35       27.29       27.23       27.17       27.10       27.03       26.94       26.85       26.76    
        26.65       26.54       26.42       26.29       26.14       25.98       25.81       25.61       25.40       25.15    
  15    27.63       27.62       27.62       27.60       27.59       27.57       27.54       27.51       27.48       27.44    
        27.39       27.35       27.29       27.23       27.17       27.10       27.03       26.94       26.85       26.76    
        26.65       26.54       26.42       26.29       26.14       25.98       25.81       25.61       25.40       25.15    
  16    27.63       27.62       27.62       27.60       27.59       27.57       27.54       27.51       27.48       27.44    
        27.39       27.35       27.29       27.23       27.17       27.10       27.03       26.94       26.85       26.76    
        26.65       26.54       26.42       26.29       26.14       25.98       25.81       25.61       25.40       25.15    
  17    27.63       27.62       27.62       27.60       27.59       27.57       27.54       27.51       27.48       27.44    
        27.39       27.35       27.29       27.23       27.17       27.10       27.03       26.94       26.85       26.76    
        26.65       26.54       26.42       26.29       26.14       25.98       25.81       25.61       25.40       25.15    
  18    27.63       27.62       27.62       27.60       27.59       27.57       27.54       27.51       27.48       27.44    
        27.39       27.35       27.29       27.23       27.17       27.10       27.03       26.94       26.85       26.76    
        26.65       26.54       26.42       26.29       26.14       25.98       25.81       25.61       25.40       25.15    
  19    27.63       27.62       27.62       27.60       27.59       27.57       27.54       27.51       27.48       27.44    
        27.39       27.35       27.29       27.23       27.17       27.10       27.03       26.94       26.85       26.76    
        26.65       26.54       26.42       26.29       26.14       25.98       25.81       25.61       25.40       25.15    
  20    27.63       27.62       27.62       27.60       27.59       27.57       27.54       27.51       27.48       27.44    
        27.39       27.35       27.29       27.23       27.17       27.10       27.03       26.94       26.85       26.76    
        26.65       26.54       26.42       26.29       26.14       25.98       25.81       25.61       25.40       25.15    
  21    27.63       27.62       27.62       27.60       27.59       27.57       27.54       27.51       27.48       27.44    
        27.39       27.35       27.29       27.23       27.17       27.10       27.03       26.94       26.85       26.76    
        26.65       26.54       26.42       26.29       26.14       25.98       25.81       25.61       25.40       25.15    
  22    27.63       27.62       27.62       27.60       27.59       27.57       27.54       27.51       27.48       27.44    
        27.39       27.35       27.29       27.23       27.17       27.10       27.03       26.94       26.85       26.76    
        26.65       26.54       26.42       26.29       26.14       25.98       25.81       25.61       25.40       25.15    
  23    27.63       27.62       27.62       27.60       27.59       27.57       27.54       27.51       27.48       27.44    
        27.39       27.35       27.29       27.23       27.17       27.10       27.03       26.94       26.85       26.76    
        26.65       26.54       26.42       26.29       26.14       25.98       25.81       25.61       25.40       25.15    
  24    27.63       27.62       27.62       27.60       27.59       27.57       27.54       27.51       27.48       27.44    
        27.39       27.35       27.29       27.23       27.17       27.10       27.03       26.94       26.85       26.76    
        26.65       26.54       26.42       26.29       26.14       25.98       25.81       25.61       25.40       25.15    
  25    27.63       27.62       27.62       27.60       27.59       27.57       27.54       27.51       27.48       27.44    
        27.39       27.35       27.29       27.23       27.17       27.10       27.03       26.94       26.85       26.76    
        26.65       26.54       26.42       26.29       26.14       25.98       25.81       25.61       25.40       25.15    
  26    27.63       27.62       27.62       27.60       27.59       27.57       27.54       27.51       27.48       27.44    
        27.39       27.35       27.29       27.23       27.17       27.10       27.03       26.94       26.85       26.76    
        26.65       26.54       26.42       26.29       26.14       25.98       25.81       25.61       25.40       25.15    
  27    27.63       27.62       27.62       27.60       27.59       27.57       27.54       27.51       27.48       27.44    
        27.39       27.35       27.29       27.23       27.17       27.10       27.03       26.94       26.85       26.76    
        26.65       26.54       26.42       26.29       26.14       25.98       25.81       25.61       25.40       25.15    
  28    27.63       27.62       27.62       27.60       27.59       27.57       27.54       27.51       27.48       27.44    
        27.39       27.35       27.29       27.23       27.17       27.10       27.03       26.94       26.85       26.76    
        26.65       26.54       26.42       26.29       26.14       25.98       25.81       25.61       25.40       25.15    
  29    27.63       27.62       27.62       27.60       27.59       27.57       27.54       27.51       27.48       27.44    
        27.39       27.35       27.29       27.23       27.17       27.10       27.03       26.94       26.85       26.76    
        26.65       26.54       26.42       26.29       26.14       25.98       25.81       25.61       25.40       25.15    
  30    27.63       27.62       27.62       27.60       27.59       27.57       27.54       27.51       27.48       27.44    
        27.39       27.35       27.29       27.23       27.17       27.10       27.03       26.94       26.85       26.76    
        26.65       26.54       26.42       26.29       26.14       25.98       25.81       25.61       25.40       25.15    

 HEAD WILL BE SAVED ON UNIT 1017 AT END OF TIME STEP   10, STRESS PERIOD   33


  VOLUME BUDGET FOR ENTIRE MODEL AT END OF TIME STEP   10, STRESS PERIOD  33
  ---------------------------------------------------------------------------------------------------

     CUMULATIVE VOLUME      L**3       RATES FOR THIS TIME STEP      L**3/T          PACKAGE NAME    
     ------------------                 ------------------------                     ----------------

           IN:                                      IN:
           ---                                      ---
              STO-SS =          54.9153                STO-SS =       4.3103E-03     STORAGE         
              STO-SY =       34802.7176                STO-SY =           2.8388     STORAGE         
                 RCH =      152905.5538                   RCH =         143.0141     RCHA            
                 CHD =           0.0000                   CHD =           0.0000     CHD             

            TOTAL IN =      187763.1868              TOTAL IN =         145.8571

          OUT:                                     OUT:
          ----                                     ----
              STO-SS =          33.3124                STO-SS =           0.0000     STORAGE         
              STO-SY =       21386.8378                STO-SY =           0.0000     STORAGE         
                 RCH =           0.0000                   RCH =           0.0000     RCHA            
                 CHD =      166341.6915                   CHD =         145.8500     CHD             

           TOTAL OUT =      187761.8417             TOTAL OUT =         145.8500

            IN - OUT =           1.3450              IN - OUT =       7.1781E-03

 PERCENT DISCREPANCY =           0.00     PERCENT DISCREPANCY =           0.00




         TIME SUMMARY AT END OF TIME STEP   10 IN STRESS PERIOD   33
                    SECONDS     MINUTES      HOURS       DAYS        YEARS
                    -----------------------------------------------------------
   TIME STEP LENGTH 2.59200E+05  4320.0      72.000      3.0000     8.21355E-03
 STRESS PERIOD TIME 2.59200E+06  43200.      720.00      30.000     8.21355E-02
         TOTAL TIME 8.30304E+07 1.38384E+06  23064.      961.00      2.6311    

 OUTPUT CONTROL FOR STRESS PERIOD 34 IS REPEATED USING SETTINGS FROM A PREVIOUS STRESS PERIOD.


 STRESS PERIOD 34 IS TRANSIENT


                 RECHARGE =  0.2191780E-02
 UBDSV1 SAVING           STO-SS ON UNIT   1016 AT TIME STEP      1, STRESS PERIOD     34
 UBDSV1 SAVING           STO-SY ON UNIT   1016 AT TIME STEP      1, STRESS PERIOD     34
 UBDSV1 SAVING     FLOW-JA-FACE ON UNIT   1016 AT TIME STEP      1, STRESS PERIOD     34
 UBDSV06 SAVING              RCH IN MODEL TEST_TRANS       PACKAGE TEST_TRANS      CONNECTED TO MODEL TEST_TRANS       PACKAGE RCHA             ON UNIT   1016 AT TIME STEP      1, STRESS PERIOD     34
 UBDSV06 SAVING              CHD IN MODEL TEST_TRANS       PACKAGE TEST_TRANS      CONNECTED TO MODEL TEST_TRANS       PACKAGE CHD              ON UNIT   1016 AT TIME STEP      1, STRESS PERIOD     34
1
  HEAD IN LAYER   1 AT END OF TIME STEP   1 IN STRESS PERIOD   34
  ---------------------------------------------------------------------------

            1           2           3           4           5           6           7           8           9          10
           11          12          13          14          15          16          17          18          19          20
           21          22          23          24          25          26          27          28          29          30
 ........................................................................................................................
   1    27.64       27.63       27.62       27.61       27.59       27.57       27.55       27.52       27.48       27.45    
        27.40       27.35       27.30       27.24       27.18       27.11       27.03       26.95       26.86       26.76    
        26.66       26.55       26.42       26.29       26.14       25.98       25.80       25.60       25.36       25.06    
   2    27.64       27.63       27.62       27.61       27.59       27.57       27.55       27.52       27.48       27.45    
        27.40       27.35       27.30       27.24       27.18       27.11       27.03       26.95       26.86       26.76    
        26.66       26.55       26.42       26.29       26.14       25.98       25.80       25.60       25.36       25.06    
   3    27.64       27.63       27.62       27.61       27.59       27.57       27.55       27.52       27.48       27.45    
        27.40       27.35       27.30       27.24       27.18       27.11       27.03       26.95       26.86       26.76    
        26.66       26.55       26.42       26.29       26.14       25.98       25.80       25.60       25.36       25.06    
   4    27.64       27.63       27.62       27.61       27.59       27.57       27.55       27.52       27.48       27.45    
        27.40       27.35       27.30       27.24       27.18       27.11       27.03       26.95       26.86       26.76    
        26.66       26.55       26.42       26.29       26.14       25.98       25.80       25.60       25.36       25.06    
   5    27.64       27.63       27.62       27.61       27.59       27.57       27.55       27.52       27.48       27.45    
        27.40       27.35       27.30       27.24       27.18       27.11       27.03       26.95       26.86       26.76    
        26.66       26.55       26.42       26.29       26.14       25.98       25.80       25.60       25.36       25.06    
   6    27.64       27.63       27.62       27.61       27.59       27.57       27.55       27.52       27.48       27.45    
        27.40       27.35       27.30       27.24       27.18       27.11       27.03       26.95       26.86       26.76    
        26.66       26.55       26.42       26.29       26.14       25.98       25.80       25.60       25.36       25.06    
   7    27.64       27.63       27.62       27.61       27.59       27.57       27.55       27.52       27.48       27.45    
        27.40       27.35       27.30       27.24       27.18       27.11       27.03       26.95       26.86       26.76    
        26.66       26.55       26.42       26.29       26.14       25.98       25.80       25.60       25.36       25.06    
   8    27.64       27.63       27.62       27.61       27.59       27.57       27.55       27.52       27.48       27.45    
        27.40       27.35       27.30       27.24       27.18       27.11       27.03       26.95       26.86       26.76    
        26.66       26.55       26.42       26.29       26.14       25.98       25.80       25.60       25.36       25.06    
   9    27.64       27.63       27.62       27.61       27.59       27.57       27.55       27.52       27.48       27.45    
        27.40       27.35       27.30       27.24       27.18       27.11       27.03       26.95       26.86       26.76    
        26.66       26.55       26.42       26.29       26.14       25.98       25.80       25.60       25.36       25.06    
  10    27.64       27.63       27.62       27.61       27.59       27.57       27.55       27.52       27.48       27.45    
        27.40       27.35       27.30       27.24       27.18       27.11       27.03       26.95       26.86       26.76    
        26.66       26.55       26.42       26.29       26.14       25.98       25.80       25.60       25.36       25.06    
  11    27.64       27.63       27.62       27.61       27.59       27.57       27.55       27.52       27.48       27.45    
        27.40       27.35       27.30       27.24       27.18       27.11       27.03       26.95       26.86       26.76    
        26.66       26.55       26.42       26.29       26.14       25.98       25.80       25.60       25.36       25.06    
  12    27.64       27.63       27.62       27.61       27.59       27.57       27.55       27.52       27.48       27.45    
        27.40       27.35       27.30       27.24       27.18       27.11       27.03       26.95       26.86       26.76    
        26.66       26.55       26.42       26.29       26.14       25.98       25.80       25.60       25.36       25.06    
  13    27.64       27.63       27.62       27.61       27.59       27.57       27.55       27.52       27.48       27.45    
        27.40       27.35       27.30       27.24       27.18       27.11       27.03       26.95       26.86       26.76    
        26.66       26.55       26.42       26.29       26.14       25.98       25.80       25.60       25.36       25.06    
  14    27.64       27.63       27.62       27.61       27.59       27.57       27.55       27.52       27.48       27.45    
        27.40       27.35       27.30       27.24       27.18       27.11       27.03       26.95       26.86       26.76    
        26.66       26.55       26.42       26.29       26.14       25.98       25.80       25.60       25.36       25.06    
  15    27.64       27.63       27.62       27.61       27.59       27.57       27.55       27.52       27.48       27.45    
        27.40       27.35       27.30       27.24       27.18       27.11       27.03       26.95       26.86       26.76    
        26.66       26.55       26.42       26.29       26.14       25.98       25.80       25.60       25.36       25.06    
  16    27.64       27.63       27.62       27.61       27.59       27.57       27.55       27.52       27.48       27.45    
        27.40       27.35       27.30       27.24       27.18       27.11       27.03       26.95       26.86       26.76    
        26.66       26.55       26.42       26.29       26.14       25.98       25.80       25.60       25.36       25.06    
  17    27.64       27.63       27.62       27.61       27.59       27.57       27.55       27.52       27.48       27.45    
        27.40       27.35       27.30       27.24       27.18       27.11       27.03       26.95       26.86       26.76    
        26.66       26.55       26.42       26.29       26.14       25.98       25.80       25.60       25.36       25.06    
  18    27.64       27.63       27.62       27.61       27.59       27.57       27.55       27.52       27.48       27.45    
        27.40       27.35       27.30       27.24       27.18       27.11       27.03       26.95       26.86       26.76    
        26.66       26.55       26.42       26.29       26.14       25.98       25.80       25.60       25.36       25.06    
  19    27.64       27.63       27.62       27.61       27.59       27.57       27.55       27.52       27.48       27.45    
        27.40       27.35       27.30       27.24       27.18       27.11       27.03       26.95       26.86       26.76    
        26.66       26.55       26.42       26.29       26.14       25.98       25.80       25.60       25.36       25.06    
  20    27.64       27.63       27.62       27.61       27.59       27.57       27.55       27.52       27.48       27.45    
        27.40       27.35       27.30       27.24       27.18       27.11       27.03       26.95       26.86       26.76    
        26.66       26.55       26.42       26.29       26.14       25.98       25.80       25.60       25.36       25.06    
  21    27.64       27.63       27.62       27.61       27.59       27.57       27.55       27.52       27.48       27.45    
        27.40       27.35       27.30       27.24       27.18       27.11       27.03       26.95       26.86       26.76    
        26.66       26.55       26.42       26.29       26.14       25.98       25.80       25.60       25.36       25.06    
  22    27.64       27.63       27.62       27.61       27.59       27.57       27.55       27.52       27.48       27.45    
        27.40       27.35       27.30       27.24       27.18       27.11       27.03       26.95       26.86       26.76    
        26.66       26.55       26.42       26.29       26.14       25.98       25.80       25.60       25.36       25.06    
  23    27.64       27.63       27.62       27.61       27.59       27.57       27.55       27.52       27.48       27.45    
        27.40       27.35       27.30       27.24       27.18       27.11       27.03       26.95       26.86       26.76    
        26.66       26.55       26.42       26.29       26.14       25.98       25.80       25.60       25.36       25.06    
  24    27.64       27.63       27.62       27.61       27.59       27.57       27.55       27.52       27.48       27.45    
        27.40       27.35       27.30       27.24       27.18       27.11       27.03       26.95       26.86       26.76    
        26.66       26.55       26.42       26.29       26.14       25.98       25.80       25.60       25.36       25.06    
  25    27.64       27.63       27.62       27.61       27.59       27.57       27.55       27.52       27.48       27.45    
        27.40       27.35       27.30       27.24       27.18       27.11       27.03       26.95       26.86       26.76    
        26.66       26.55       26.42       26.29       26.14       25.98       25.80       25.60       25.36       25.06    
  26    27.64       27.63       27.62       27.61       27.59       27.57       27.55       27.52       27.48       27.45    
        27.40       27.35       27.30       27.24       27.18       27.11       27.03       26.95       26.86       26.76    
        26.66       26.55       26.42       26.29       26.14       25.98       25.80       25.60       25.36       25.06    
  27    27.64       27.63       27.62       27.61       27.59       27.57       27.55       27.52       27.48       27.45    
        27.40       27.35       27.30       27.24       27.18       27.11       27.03       26.95       26.86       26.76    
        26.66       26.55       26.42       26.29       26.14       25.98       25.80       25.60       25.36       25.06    
  28    27.64       27.63       27.62       27.61       27.59       27.57       27.55       27.52       27.48       27.45    
        27.40       27.35       27.30       27.24       27.18       27.11       27.03       26.95       26.86       26.76    
        26.66       26.55       26.42       26.29       26.14       25.98       25.80       25.60       25.36       25.06    
  29    27.64       27.63       27.62       27.61       27.59       27.57       27.55       27.52       27.48       27.45    
        27.40       27.35       27.30       27.24       27.18       27.11       27.03       26.95       26.86       26.76    
        26.66       26.55       26.42       26.29       26.14       25.98       25.80       25.60       25.36       25.06    
  30    27.64       27.63       27.62       27.61       27.59       27.57       27.55       27.52       27.48       27.45    
        27.40       27.35       27.30       27.24       27.18       27.11       27.03       26.95       26.86       26.76    
        26.66       26.55       26.42       26.29       26.14       25.98       25.80       25.60       25.36       25.06    

 HEAD WILL BE SAVED ON UNIT 1017 AT END OF TIME STEP    1, STRESS PERIOD   34



         TIME SUMMARY AT END OF TIME STEP    1 IN STRESS PERIOD   34
                    SECONDS     MINUTES      HOURS       DAYS        YEARS
                    -----------------------------------------------------------
   TIME STEP LENGTH 2.59200E+05  4320.0      72.000      3.0000     8.21355E-03
 STRESS PERIOD TIME 2.59200E+05  4320.0      72.000      3.0000     8.21355E-03
         TOTAL TIME 8.32896E+07 1.38816E+06  23136.      964.00      2.6393    
 UBDSV1 SAVING           STO-SS ON UNIT   1016 AT TIME STEP      2, STRESS PERIOD     34
 UBDSV1 SAVING           STO-SY ON UNIT   1016 AT TIME STEP      2, STRESS PERIOD     34
 UBDSV1 SAVING     FLOW-JA-FACE ON UNIT   1016 AT TIME STEP      2, STRESS PERIOD     34
 UBDSV06 SAVING              RCH IN MODEL TEST_TRANS       PACKAGE TEST_TRANS      CONNECTED TO MODEL TEST_TRANS       PACKAGE RCHA             ON UNIT   1016 AT TIME STEP      2, STRESS PERIOD     34
 UBDSV06 SAVING              CHD IN MODEL TEST_TRANS       PACKAGE TEST_TRANS      CONNECTED TO MODEL TEST_TRANS       PACKAGE CHD              ON UNIT   1016 AT TIME STEP      2, STRESS PERIOD     34

 HEAD WILL BE SAVED ON UNIT 1017 AT END OF TIME STEP    2, STRESS PERIOD   34
 UBDSV1 SAVING           STO-SS ON UNIT   1016 AT TIME STEP      3, STRESS PERIOD     34
 UBDSV1 SAVING           STO-SY ON UNIT   1016 AT TIME STEP      3, STRESS PERIOD     34
 UBDSV1 SAVING     FLOW-JA-FACE ON UNIT   1016 AT TIME STEP      3, STRESS PERIOD     34
 UBDSV06 SAVING              RCH IN MODEL TEST_TRANS       PACKAGE TEST_TRANS      CONNECTED TO MODEL TEST_TRANS       PACKAGE RCHA             ON UNIT   1016 AT TIME STEP      3, STRESS PERIOD     34
 UBDSV06 SAVING              CHD IN MODEL TEST_TRANS       PACKAGE TEST_TRANS      CONNECTED TO MODEL TEST_TRANS       PACKAGE CHD              ON UNIT   1016 AT TIME STEP      3, STRESS PERIOD     34

 HEAD WILL BE SAVED ON UNIT 1017 AT END OF TIME STEP    3, STRESS PERIOD   34
 UBDSV1 SAVING           STO-SS ON UNIT   1016 AT TIME STEP      4, STRESS PERIOD     34
 UBDSV1 SAVING           STO-SY ON UNIT   1016 AT TIME STEP      4, STRESS PERIOD     34
 UBDSV1 SAVING     FLOW-JA-FACE ON UNIT   1016 AT TIME STEP      4, STRESS PERIOD     34
 UBDSV06 SAVING              RCH IN MODEL TEST_TRANS       PACKAGE TEST_TRANS      CONNECTED TO MODEL TEST_TRANS       PACKAGE RCHA             ON UNIT   1016 AT TIME STEP      4, STRESS PERIOD     34
 UBDSV06 SAVING              CHD IN MODEL TEST_TRANS       PACKAGE TEST_TRANS      CONNECTED TO MODEL TEST_TRANS       PACKAGE CHD              ON UNIT   1016 AT TIME STEP      4, STRESS PERIOD     34

 HEAD WILL BE SAVED ON UNIT 1017 AT END OF TIME STEP    4, STRESS PERIOD   34
 UBDSV1 SAVING           STO-SS ON UNIT   1016 AT TIME STEP      5, STRESS PERIOD     34
 UBDSV1 SAVING           STO-SY ON UNIT   1016 AT TIME STEP      5, STRESS PERIOD     34
 UBDSV1 SAVING     FLOW-JA-FACE ON UNIT   1016 AT TIME STEP      5, STRESS PERIOD     34
 UBDSV06 SAVING              RCH IN MODEL TEST_TRANS       PACKAGE TEST_TRANS      CONNECTED TO MODEL TEST_TRANS       PACKAGE RCHA             ON UNIT   1016 AT TIME STEP      5, STRESS PERIOD     34
 UBDSV06 SAVING              CHD IN MODEL TEST_TRANS       PACKAGE TEST_TRANS      CONNECTED TO MODEL TEST_TRANS       PACKAGE CHD              ON UNIT   1016 AT TIME STEP      5, STRESS PERIOD     34

 HEAD WILL BE SAVED ON UNIT 1017 AT END OF TIME STEP    5, STRESS PERIOD   34
 UBDSV1 SAVING           STO-SS ON UNIT   1016 AT TIME STEP      6, STRESS PERIOD     34
 UBDSV1 SAVING           STO-SY ON UNIT   1016 AT TIME STEP      6, STRESS PERIOD     34
 UBDSV1 SAVING     FLOW-JA-FACE ON UNIT   1016 AT TIME STEP      6, STRESS PERIOD     34
 UBDSV06 SAVING              RCH IN MODEL TEST_TRANS       PACKAGE TEST_TRANS      CONNECTED TO MODEL TEST_TRANS       PACKAGE RCHA             ON UNIT   1016 AT TIME STEP      6, STRESS PERIOD     34
 UBDSV06 SAVING              CHD IN MODEL TEST_TRANS       PACKAGE TEST_TRANS      CONNECTED TO MODEL TEST_TRANS       PACKAGE CHD              ON UNIT   1016 AT TIME STEP      6, STRESS PERIOD     34

 HEAD WILL BE SAVED ON UNIT 1017 AT END OF TIME STEP    6, STRESS PERIOD   34
 UBDSV1 SAVING           STO-SS ON UNIT   1016 AT TIME STEP      7, STRESS PERIOD     34
 UBDSV1 SAVING           STO-SY ON UNIT   1016 AT TIME STEP      7, STRESS PERIOD     34
 UBDSV1 SAVING     FLOW-JA-FACE ON UNIT   1016 AT TIME STEP      7, STRESS PERIOD     34
 UBDSV06 SAVING              RCH IN MODEL TEST_TRANS       PACKAGE TEST_TRANS      CONNECTED TO MODEL TEST_TRANS       PACKAGE RCHA             ON UNIT   1016 AT TIME STEP      7, STRESS PERIOD     34
 UBDSV06 SAVING              CHD IN MODEL TEST_TRANS       PACKAGE TEST_TRANS      CONNECTED TO MODEL TEST_TRANS       PACKAGE CHD              ON UNIT   1016 AT TIME STEP      7, STRESS PERIOD     34

 HEAD WILL BE SAVED ON UNIT 1017 AT END OF TIME STEP    7, STRESS PERIOD   34
 UBDSV1 SAVING           STO-SS ON UNIT   1016 AT TIME STEP      8, STRESS PERIOD     34
 UBDSV1 SAVING           STO-SY ON UNIT   1016 AT TIME STEP      8, STRESS PERIOD     34
 UBDSV1 SAVING     FLOW-JA-FACE ON UNIT   1016 AT TIME STEP      8, STRESS PERIOD     34
 UBDSV06 SAVING              RCH IN MODEL TEST_TRANS       PACKAGE TEST_TRANS      CONNECTED TO MODEL TEST_TRANS       PACKAGE RCHA             ON UNIT   1016 AT TIME STEP      8, STRESS PERIOD     34
 UBDSV06 SAVING              CHD IN MODEL TEST_TRANS       PACKAGE TEST_TRANS      CONNECTED TO MODEL TEST_TRANS       PACKAGE CHD              ON UNIT   1016 AT TIME STEP      8, STRESS PERIOD     34

 HEAD WILL BE SAVED ON UNIT 1017 AT END OF TIME STEP    8, STRESS PERIOD   34
 UBDSV1 SAVING           STO-SS ON UNIT   1016 AT TIME STEP      9, STRESS PERIOD     34
 UBDSV1 SAVING           STO-SY ON UNIT   1016 AT TIME STEP      9, STRESS PERIOD     34
 UBDSV1 SAVING     FLOW-JA-FACE ON UNIT   1016 AT TIME STEP      9, STRESS PERIOD     34
 UBDSV06 SAVING              RCH IN MODEL TEST_TRANS       PACKAGE TEST_TRANS      CONNECTED TO MODEL TEST_TRANS       PACKAGE RCHA             ON UNIT   1016 AT TIME STEP      9, STRESS PERIOD     34
 UBDSV06 SAVING              CHD IN MODEL TEST_TRANS       PACKAGE TEST_TRANS      CONNECTED TO MODEL TEST_TRANS       PACKAGE CHD              ON UNIT   1016 AT TIME STEP      9, STRESS PERIOD     34

 HEAD WILL BE SAVED ON UNIT 1017 AT END OF TIME STEP    9, STRESS PERIOD   34
 UBDSV1 SAVING           STO-SS ON UNIT   1016 AT TIME STEP     10, STRESS PERIOD     34
 UBDSV1 SAVING           STO-SY ON UNIT   1016 AT TIME STEP     10, STRESS PERIOD     34
 UBDSV1 SAVING     FLOW-JA-FACE ON UNIT   1016 AT TIME STEP     10, STRESS PERIOD     34
 UBDSV06 SAVING              RCH IN MODEL TEST_TRANS       PACKAGE TEST_TRANS      CONNECTED TO MODEL TEST_TRANS       PACKAGE RCHA             ON UNIT   1016 AT TIME STEP     10, STRESS PERIOD     34
 UBDSV06 SAVING              CHD IN MODEL TEST_TRANS       PACKAGE TEST_TRANS      CONNECTED TO MODEL TEST_TRANS       PACKAGE CHD              ON UNIT   1016 AT TIME STEP     10, STRESS PERIOD     34
1
  HEAD IN LAYER   1 AT END OF TIME STEP  10 IN STRESS PERIOD   34
  ---------------------------------------------------------------------------

            1           2           3           4           5           6           7           8           9          10
           11          12          13          14          15          16          17          18          19          20
           21          22          23          24          25          26          27          28          29          30
 ........................................................................................................................
   1    27.70       27.70       27.69       27.68       27.66       27.64       27.62       27.59       27.55       27.51    
        27.47       27.42       27.36       27.30       27.24       27.17       27.09       27.00       26.91       26.81    
        26.70       26.58       26.45       26.31       26.16       25.99       25.80       25.59       25.34       25.06    
   2    27.70       27.70       27.69       27.68       27.66       27.64       27.62       27.59       27.55       27.51    
        27.47       27.42       27.36       27.30       27.24       27.17       27.09       27.00       26.91       26.81    
        26.70       26.58       26.45       26.31       26.16       25.99       25.80       25.59       25.34       25.06    
   3    27.70       27.70       27.69       27.68       27.66       27.64       27.62       27.59       27.55       27.51    
        27.47       27.42       27.36       27.30       27.24       27.17       27.09       27.00       26.91       26.81    
        26.70       26.58       26.45       26.31       26.16       25.99       25.80       25.59       25.34       25.06    
   4    27.70       27.70       27.69       27.68       27.66       27.64       27.62       27.59       27.55       27.51    
        27.47       27.42       27.36       27.30       27.24       27.17       27.09       27.00       26.91       26.81    
        26.70       26.58       26.45       26.31       26.16       25.99       25.80       25.59       25.34       25.06    
   5    27.70       27.70       27.69       27.68       27.66       27.64       27.62       27.59       27.55       27.51    
        27.47       27.42       27.36       27.30       27.24       27.17       27.09       27.00       26.91       26.81    
        26.70       26.58       26.45       26.31       26.16       25.99       25.80       25.59       25.34       25.06    
   6    27.70       27.70       27.69       27.68       27.66       27.64       27.62       27.59       27.55       27.51    
        27.47       27.42       27.36       27.30       27.24       27.17       27.09       27.00       26.91       26.81    
        26.70       26.58       26.45       26.31       26.16       25.99       25.80       25.59       25.34       25.06    
   7    27.70       27.70       27.69       27.68       27.66       27.64       27.62       27.59       27.55       27.51    
        27.47       27.42       27.36       27.30       27.24       27.17       27.09       27.00       26.91       26.81    
        26.70       26.58       26.45       26.31       26.16       25.99       25.80       25.59       25.34       25.06    
   8    27.70       27.70       27.69       27.68       27.66       27.64       27.62       27.59       27.55       27.51    
        27.47       27.42       27.36       27.30       27.24       27.17       27.09       27.00       26.91       26.81    
        26.70       26.58       26.45       26.31       26.16       25.99       25.80       25.59       25.34       25.06    
   9    27.70       27.70       27.69       27.68       27.66       27.64       27.62       27.59       27.55       27.51    
        27.47       27.42       27.36       27.30       27.24       27.17       27.09       27.00       26.91       26.81    
        26.70       26.58       26.45       26.31       26.16       25.99       25.80       25.59       25.34       25.06    
  10    27.70       27.70       27.69       27.68       27.66       27.64       27.62       27.59       27.55       27.51    
        27.47       27.42       27.36       27.30       27.24       27.17       27.09       27.00       26.91       26.81    
        26.70       26.58       26.45       26.31       26.16       25.99       25.80       25.59       25.34       25.06    
  11    27.70       27.70       27.69       27.68       27.66       27.64       27.62       27.59       27.55       27.51    
        27.47       27.42       27.36       27.30       27.24       27.17       27.09       27.00       26.91       26.81    
        26.70       26.58       26.45       26.31       26.16       25.99       25.80       25.59       25.34       25.06    
  12    27.70       27.70       27.69       27.68       27.66       27.64       27.62       27.59       27.55       27.51    
        27.47       27.42       27.36       27.30       27.24       27.17       27.09       27.00       26.91       26.81    
        26.70       26.58       26.45       26.31       26.16       25.99       25.80       25.59       25.34       25.06    
  13    27.70       27.70       27.69       27.68       27.66       27.64       27.62       27.59       27.55       27.51    
        27.47       27.42       27.36       27.30       27.24       27.17       27.09       27.00       26.91       26.81    
        26.70       26.58       26.45       26.31       26.16       25.99       25.80       25.59       25.34       25.06    
  14    27.70       27.70       27.69       27.68       27.66       27.64       27.62       27.59       27.55       27.51    
        27.47       27.42       27.36       27.30       27.24       27.17       27.09       27.00       26.91       26.81    
        26.70       26.58       26.45       26.31       26.16       25.99       25.80       25.59       25.34       25.06    
  15    27.70       27.70       27.69       27.68       27.66       27.64       27.62       27.59       27.55       27.51    
        27.47       27.42       27.36       27.30       27.24       27.17       27.09       27.00       26.91       26.81    
        26.70       26.58       26.45       26.31       26.16       25.99       25.80       25.59       25.34       25.06    
  16    27.70       27.70       27.69       27.68       27.66       27.64       27.62       27.59       27.55       27.51    
        27.47       27.42       27.36       27.30       27.24       27.17       27.09       27.00       26.91       26.81    
        26.70       26.58       26.45       26.31       26.16       25.99       25.80       25.59       25.34       25.06    
  17    27.70       27.70       27.69       27.68       27.66       27.64       27.62       27.59       27.55       27.51    
        27.47       27.42       27.36       27.30       27.24       27.17       27.09       27.00       26.91       26.81    
        26.70       26.58       26.45       26.31       26.16       25.99       25.80       25.59       25.34       25.06    
  18    27.70       27.70       27.69       27.68       27.66       27.64       27.62       27.59       27.55       27.51    
        27.47       27.42       27.36       27.30       27.24       27.17       27.09       27.00       26.91       26.81    
        26.70       26.58       26.45       26.31       26.16       25.99       25.80       25.59       25.34       25.06    
  19    27.70       27.70       27.69       27.68       27.66       27.64       27.62       27.59       27.55       27.51    
        27.47       27.42       27.36       27.30       27.24       27.17       27.09       27.00       26.91       26.81    
        26.70       26.58       26.45       26.31       26.16       25.99       25.80       25.59       25.34       25.06    
  20    27.70       27.70       27.69       27.68       27.66       27.64       27.62       27.59       27.55       27.51    
        27.47       27.42       27.36       27.30       27.24       27.17       27.09       27.00       26.91       26.81    
        26.70       26.58       26.45       26.31       26.16       25.99       25.80       25.59       25.34       25.06    
  21    27.70       27.70       27.69       27.68       27.66       27.64       27.62       27.59       27.55       27.51    
        27.47       27.42       27.36       27.30       27.24       27.17       27.09       27.00       26.91       26.81    
        26.70       26.58       26.45       26.31       26.16       25.99       25.80       25.59       25.34       25.06    
  22    27.70       27.70       27.69       27.68       27.66       27.64       27.62       27.59       27.55       27.51    
        27.47       27.42       27.36       27.30       27.24       27.17       27.09       27.00       26.91       26.81    
        26.70       26.58       26.45       26.31       26.16       25.99       25.80       25.59       25.34       25.06    
  23    27.70       27.70       27.69       27.68       27.66       27.64       27.62       27.59       27.55       27.51    
        27.47       27.42       27.36       27.30       27.24       27.17       27.09       27.00       26.91       26.81    
        26.70       26.58       26.45       26.31       26.16       25.99       25.80       25.59       25.34       25.06    
  24    27.70       27.70       27.69       27.68       27.66       27.64       27.62       27.59       27.55       27.51    
        27.47       27.42       27.36       27.30       27.24       27.17       27.09       27.00       26.91       26.81    
        26.70       26.58       26.45       26.31       26.16       25.99       25.80       25.59       25.34       25.06    
  25    27.70       27.70       27.69       27.68       27.66       27.64       27.62       27.59       27.55       27.51    
        27.47       27.42       27.36       27.30       27.24       27.17       27.09       27.00       26.91       26.81    
        26.70       26.58       26.45       26.31       26.16       25.99       25.80       25.59       25.34       25.06    
  26    27.70       27.70       27.69       27.68       27.66       27.64       27.62       27.59       27.55       27.51    
        27.47       27.42       27.36       27.30       27.24       27.17       27.09       27.00       26.91       26.81    
        26.70       26.58       26.45       26.31       26.16       25.99       25.80       25.59       25.34       25.06    
  27    27.70       27.70       27.69       27.68       27.66       27.64       27.62       27.59       27.55       27.51    
        27.47       27.42       27.36       27.30       27.24       27.17       27.09       27.00       26.91       26.81    
        26.70       26.58       26.45       26.31       26.16       25.99       25.80       25.59       25.34       25.06    
  28    27.70       27.70       27.69       27.68       27.66       27.64       27.62       27.59       27.55       27.51    
        27.47       27.42       27.36       27.30       27.24       27.17       27.09       27.00       26.91       26.81    
        26.70       26.58       26.45       26.31       26.16       25.99       25.80       25.59       25.34       25.06    
  29    27.70       27.70       27.69       27.68       27.66       27.64       27.62       27.59       27.55       27.51    
        27.47       27.42       27.36       27.30       27.24       27.17       27.09       27.00       26.91       26.81    
        26.70       26.58       26.45       26.31       26.16       25.99       25.80       25.59       25.34       25.06    
  30    27.70       27.70       27.69       27.68       27.66       27.64       27.62       27.59       27.55       27.51    
        27.47       27.42       27.36       27.30       27.24       27.17       27.09       27.00       26.91       26.81    
        26.70       26.58       26.45       26.31       26.16       25.99       25.80       25.59       25.34       25.06    

 HEAD WILL BE SAVED ON UNIT 1017 AT END OF TIME STEP   10, STRESS PERIOD   34


  VOLUME BUDGET FOR ENTIRE MODEL AT END OF TIME STEP   10, STRESS PERIOD  34
  ---------------------------------------------------------------------------------------------------

     CUMULATIVE VOLUME      L**3       RATES FOR THIS TIME STEP      L**3/T          PACKAGE NAME    
     ------------------                 ------------------------                     ----------------

           IN:                                      IN:
           ---                                      ---
              STO-SS =          55.0082                STO-SS =           0.0000     STORAGE         
              STO-SY =       34868.9121                STO-SY =           0.0000     STORAGE         
                 RCH =      158626.0996                   RCH =         190.6849     RCHA            
                 CHD =           0.0000                   CHD =           0.0000     CHD             

            TOTAL IN =      193550.0198              TOTAL IN =         190.6849

          OUT:                                     OUT:
          ----                                     ----
              STO-SS =          34.8169                STO-SS =       4.7068E-02     STORAGE         
              STO-SY =       22340.2839                STO-SY =          29.8408     STORAGE         
                 RCH =           0.0000                   RCH =           0.0000     RCHA            
                 CHD =      171173.9647                   CHD =         160.8208     CHD             

           TOTAL OUT =      193549.0655             TOTAL OUT =         190.7086

            IN - OUT =           0.9543              IN - OUT =      -2.3767E-02

 PERCENT DISCREPANCY =           0.00     PERCENT DISCREPANCY =          -0.01




         TIME SUMMARY AT END OF TIME STEP   10 IN STRESS PERIOD   34
                    SECONDS     MINUTES      HOURS       DAYS        YEARS
                    -----------------------------------------------------------
   TIME STEP LENGTH 2.59200E+05  4320.0      72.000      3.0000     8.21355E-03
 STRESS PERIOD TIME 2.59200E+06  43200.      720.00      30.000     8.21355E-02
         TOTAL TIME 8.56224E+07 1.42704E+06  23784.      991.00      2.7132    

 OUTPUT CONTROL FOR STRESS PERIOD 35 IS REPEATED USING SETTINGS FROM A PREVIOUS STRESS PERIOD.


 STRESS PERIOD 35 IS TRANSIENT


                 RECHARGE =  0.2465750E-02
 UBDSV1 SAVING           STO-SS ON UNIT   1016 AT TIME STEP      1, STRESS PERIOD     35
 UBDSV1 SAVING           STO-SY ON UNIT   1016 AT TIME STEP      1, STRESS PERIOD     35
 UBDSV1 SAVING     FLOW-JA-FACE ON UNIT   1016 AT TIME STEP      1, STRESS PERIOD     35
 UBDSV06 SAVING              RCH IN MODEL TEST_TRANS       PACKAGE TEST_TRANS      CONNECTED TO MODEL TEST_TRANS       PACKAGE RCHA             ON UNIT   1016 AT TIME STEP      1, STRESS PERIOD     35
 UBDSV06 SAVING              CHD IN MODEL TEST_TRANS       PACKAGE TEST_TRANS      CONNECTED TO MODEL TEST_TRANS       PACKAGE CHD              ON UNIT   1016 AT TIME STEP      1, STRESS PERIOD     35
1
  HEAD IN LAYER   1 AT END OF TIME STEP   1 IN STRESS PERIOD   35
  ---------------------------------------------------------------------------

            1           2           3           4           5           6           7           8           9          10
           11          12          13          14          15          16          17          18          19          20
           21          22          23          24          25          26          27          28          29          30
 ........................................................................................................................
   1    27.72       27.71       27.70       27.69       27.67       27.65       27.63       27.60       27.56       27.52    
        27.48       27.43       27.37       27.31       27.25       27.17       27.10       27.01       26.92       26.82    
        26.71       26.58       26.45       26.30       26.14       25.95       25.72       25.44       25.05       24.36    
   2    27.72       27.71       27.70       27.69       27.67       27.65       27.63       27.60       27.56       27.52    
        27.48       27.43       27.37       27.31       27.25       27.17       27.10       27.01       26.92       26.82    
        26.71       26.58       26.45       26.30       26.14       25.95       25.72       25.44       25.05       24.36    
   3    27.72       27.71       27.70       27.69       27.67       27.65       27.63       27.60       27.56       27.52    
        27.48       27.43       27.37       27.31       27.25       27.17       27.10       27.01       26.92       26.82    
        26.71       26.58       26.45       26.30       26.14       25.95       25.72       25.44       25.05       24.36    
   4    27.72       27.71       27.70       27.69       27.67       27.65       27.63       27.60       27.56       27.52    
        27.48       27.43       27.37       27.31       27.25       27.17       27.10       27.01       26.92       26.82    
        26.71       26.58       26.45       26.30       26.14       25.95       25.72       25.44       25.05       24.36    
   5    27.72       27.71       27.70       27.69       27.67       27.65       27.63       27.60       27.56       27.52    
        27.48       27.43       27.37       27.31       27.25       27.17       27.10       27.01       26.92       26.82    
        26.71       26.58       26.45       26.30       26.14       25.95       25.72       25.44       25.05       24.36    
   6    27.72       27.71       27.70       27.69       27.67       27.65       27.63       27.60       27.56       27.52    
        27.48       27.43       27.37       27.31       27.25       27.17       27.10       27.01       26.92       26.82    
        26.71       26.58       26.45       26.30       26.14       25.95       25.72       25.44       25.05       24.36    
   7    27.72       27.71       27.70       27.69       27.67       27.65       27.63       27.60       27.56       27.52    
        27.48       27.43       27.37       27.31       27.25       27.17       27.10       27.01       26.92       26.82    
        26.71       26.58       26.45       26.30       26.14       25.95       25.72       25.44       25.05       24.36    
   8    27.72       27.71       27.70       27.69       27.67       27.65       27.63       27.60       27.56       27.52    
        27.48       27.43       27.37       27.31       27.25       27.17       27.10       27.01       26.92       26.82    
        26.71       26.58       26.45       26.30       26.14       25.95       25.72       25.44       25.05       24.36    
   9    27.72       27.71       27.70       27.69       27.67       27.65       27.63       27.60       27.56       27.52    
        27.48       27.43       27.37       27.31       27.25       27.17       27.10       27.01       26.92       26.82    
        26.71       26.58       26.45       26.30       26.14       25.95       25.72       25.44       25.05       24.36    
  10    27.72       27.71       27.70       27.69       27.67       27.65       27.63       27.60       27.56       27.52    
        27.48       27.43       27.37       27.31       27.25       27.17       27.10       27.01       26.92       26.82    
        26.71       26.58       26.45       26.30       26.14       25.95       25.72       25.44       25.05       24.36    
  11    27.72       27.71       27.70       27.69       27.67       27.65       27.63       27.60       27.56       27.52    
        27.48       27.43       27.37       27.31       27.25       27.17       27.10       27.01       26.92       26.82    
        26.71       26.58       26.45       26.30       26.14       25.95       25.72       25.44       25.05       24.36    
  12    27.72       27.71       27.70       27.69       27.67       27.65       27.63       27.60       27.56       27.52    
        27.48       27.43       27.37       27.31       27.25       27.17       27.10       27.01       26.92       26.82    
        26.71       26.58       26.45       26.30       26.14       25.95       25.72       25.44       25.05       24.36    
  13    27.72       27.71       27.70       27.69       27.67       27.65       27.63       27.60       27.56       27.52    
        27.48       27.43       27.37       27.31       27.25       27.17       27.10       27.01       26.92       26.82    
        26.71       26.58       26.45       26.30       26.14       25.95       25.72       25.44       25.05       24.36    
  14    27.72       27.71       27.70       27.69       27.67       27.65       27.63       27.60       27.56       27.52    
        27.48       27.43       27.37       27.31       27.25       27.17       27.10       27.01       26.92       26.82    
        26.71       26.58       26.45       26.30       26.14       25.95       25.72       25.44       25.05       24.36    
  15    27.72       27.71       27.70       27.69       27.67       27.65       27.63       27.60       27.56       27.52    
        27.48       27.43       27.37       27.31       27.25       27.17       27.10       27.01       26.92       26.82    
        26.71       26.58       26.45       26.30       26.14       25.95       25.72       25.44       25.05       24.36    
  16    27.72       27.71       27.70       27.69       27.67       27.65       27.63       27.60       27.56       27.52    
        27.48       27.43       27.37       27.31       27.25       27.17       27.10       27.01       26.92       26.82    
        26.71       26.58       26.45       26.30       26.14       25.95       25.72       25.44       25.05       24.36    
  17    27.72       27.71       27.70       27.69       27.67       27.65       27.63       27.60       27.56       27.52    
        27.48       27.43       27.37       27.31       27.25       27.17       27.10       27.01       26.92       26.82    
        26.71       26.58       26.45       26.30       26.14       25.95       25.72       25.44       25.05       24.36    
  18    27.72       27.71       27.70       27.69       27.67       27.65       27.63       27.60       27.56       27.52    
        27.48       27.43       27.37       27.31       27.25       27.17       27.10       27.01       26.92       26.82    
        26.71       26.58       26.45       26.30       26.14       25.95       25.72       25.44       25.05       24.36    
  19    27.72       27.71       27.70       27.69       27.67       27.65       27.63       27.60       27.56       27.52    
        27.48       27.43       27.37       27.31       27.25       27.17       27.10       27.01       26.92       26.82    
        26.71       26.58       26.45       26.30       26.14       25.95       25.72       25.44       25.05       24.36    
  20    27.72       27.71       27.70       27.69       27.67       27.65       27.63       27.60       27.56       27.52    
        27.48       27.43       27.37       27.31       27.25       27.17       27.10       27.01       26.92       26.82    
        26.71       26.58       26.45       26.30       26.14       25.95       25.72       25.44       25.05       24.36    
  21    27.72       27.71       27.70       27.69       27.67       27.65       27.63       27.60       27.56       27.52    
        27.48       27.43       27.37       27.31       27.25       27.17       27.10       27.01       26.92       26.82    
        26.71       26.58       26.45       26.30       26.14       25.95       25.72       25.44       25.05       24.36    
  22    27.72       27.71       27.70       27.69       27.67       27.65       27.63       27.60       27.56       27.52    
        27.48       27.43       27.37       27.31       27.25       27.17       27.10       27.01       26.92       26.82    
        26.71       26.58       26.45       26.30       26.14       25.95       25.72       25.44       25.05       24.36    
  23    27.72       27.71       27.70       27.69       27.67       27.65       27.63       27.60       27.56       27.52    
        27.48       27.43       27.37       27.31       27.25       27.17       27.10       27.01       26.92       26.82    
        26.71       26.58       26.45       26.30       26.14       25.95       25.72       25.44       25.05       24.36    
  24    27.72       27.71       27.70       27.69       27.67       27.65       27.63       27.60       27.56       27.52    
        27.48       27.43       27.37       27.31       27.25       27.17       27.10       27.01       26.92       26.82    
        26.71       26.58       26.45       26.30       26.14       25.95       25.72       25.44       25.05       24.36    
  25    27.72       27.71       27.70       27.69       27.67       27.65       27.63       27.60       27.56       27.52    
        27.48       27.43       27.37       27.31       27.25       27.17       27.10       27.01       26.92       26.82    
        26.71       26.58       26.45       26.30       26.14       25.95       25.72       25.44       25.05       24.36    
  26    27.72       27.71       27.70       27.69       27.67       27.65       27.63       27.60       27.56       27.52    
        27.48       27.43       27.37       27.31       27.25       27.17       27.10       27.01       26.92       26.82    
        26.71       26.58       26.45       26.30       26.14       25.95       25.72       25.44       25.05       24.36    
  27    27.72       27.71       27.70       27.69       27.67       27.65       27.63       27.60       27.56       27.52    
        27.48       27.43       27.37       27.31       27.25       27.17       27.10       27.01       26.92       26.82    
        26.71       26.58       26.45       26.30       26.14       25.95       25.72       25.44       25.05       24.36    
  28    27.72       27.71       27.70       27.69       27.67       27.65       27.63       27.60       27.56       27.52    
        27.48       27.43       27.37       27.31       27.25       27.17       27.10       27.01       26.92       26.82    
        26.71       26.58       26.45       26.30       26.14       25.95       25.72       25.44       25.05       24.36    
  29    27.72       27.71       27.70       27.69       27.67       27.65       27.63       27.60       27.56       27.52    
        27.48       27.43       27.37       27.31       27.25       27.17       27.10       27.01       26.92       26.82    
        26.71       26.58       26.45       26.30       26.14       25.95       25.72       25.44       25.05       24.36    
  30    27.72       27.71       27.70       27.69       27.67       27.65       27.63       27.60       27.56       27.52    
        27.48       27.43       27.37       27.31       27.25       27.17       27.10       27.01       26.92       26.82    
        26.70       26.58       26.45       26.30       26.14       25.95       25.72       25.44       25.05       24.36    

 HEAD WILL BE SAVED ON UNIT 1017 AT END OF TIME STEP    1, STRESS PERIOD   35



         TIME SUMMARY AT END OF TIME STEP    1 IN STRESS PERIOD   35
                    SECONDS     MINUTES      HOURS       DAYS        YEARS
                    -----------------------------------------------------------
   TIME STEP LENGTH 2.59200E+05  4320.0      72.000      3.0000     8.21355E-03
 STRESS PERIOD TIME 2.59200E+05  4320.0      72.000      3.0000     8.21355E-03
         TOTAL TIME 8.58816E+07 1.43136E+06  23856.      994.00      2.7214    
 UBDSV1 SAVING           STO-SS ON UNIT   1016 AT TIME STEP      2, STRESS PERIOD     35
 UBDSV1 SAVING           STO-SY ON UNIT   1016 AT TIME STEP      2, STRESS PERIOD     35
 UBDSV1 SAVING     FLOW-JA-FACE ON UNIT   1016 AT TIME STEP      2, STRESS PERIOD     35
 UBDSV06 SAVING              RCH IN MODEL TEST_TRANS       PACKAGE TEST_TRANS      CONNECTED TO MODEL TEST_TRANS       PACKAGE RCHA             ON UNIT   1016 AT TIME STEP      2, STRESS PERIOD     35
 UBDSV06 SAVING              CHD IN MODEL TEST_TRANS       PACKAGE TEST_TRANS      CONNECTED TO MODEL TEST_TRANS       PACKAGE CHD              ON UNIT   1016 AT TIME STEP      2, STRESS PERIOD     35

 HEAD WILL BE SAVED ON UNIT 1017 AT END OF TIME STEP    2, STRESS PERIOD   35
 UBDSV1 SAVING           STO-SS ON UNIT   1016 AT TIME STEP      3, STRESS PERIOD     35
 UBDSV1 SAVING           STO-SY ON UNIT   1016 AT TIME STEP      3, STRESS PERIOD     35
 UBDSV1 SAVING     FLOW-JA-FACE ON UNIT   1016 AT TIME STEP      3, STRESS PERIOD     35
 UBDSV06 SAVING              RCH IN MODEL TEST_TRANS       PACKAGE TEST_TRANS      CONNECTED TO MODEL TEST_TRANS       PACKAGE RCHA             ON UNIT   1016 AT TIME STEP      3, STRESS PERIOD     35
 UBDSV06 SAVING              CHD IN MODEL TEST_TRANS       PACKAGE TEST_TRANS      CONNECTED TO MODEL TEST_TRANS       PACKAGE CHD              ON UNIT   1016 AT TIME STEP      3, STRESS PERIOD     35

 HEAD WILL BE SAVED ON UNIT 1017 AT END OF TIME STEP    3, STRESS PERIOD   35
 UBDSV1 SAVING           STO-SS ON UNIT   1016 AT TIME STEP      4, STRESS PERIOD     35
 UBDSV1 SAVING           STO-SY ON UNIT   1016 AT TIME STEP      4, STRESS PERIOD     35
 UBDSV1 SAVING     FLOW-JA-FACE ON UNIT   1016 AT TIME STEP      4, STRESS PERIOD     35
 UBDSV06 SAVING              RCH IN MODEL TEST_TRANS       PACKAGE TEST_TRANS      CONNECTED TO MODEL TEST_TRANS       PACKAGE RCHA             ON UNIT   1016 AT TIME STEP      4, STRESS PERIOD     35
 UBDSV06 SAVING              CHD IN MODEL TEST_TRANS       PACKAGE TEST_TRANS      CONNECTED TO MODEL TEST_TRANS       PACKAGE CHD              ON UNIT   1016 AT TIME STEP      4, STRESS PERIOD     35

 HEAD WILL BE SAVED ON UNIT 1017 AT END OF TIME STEP    4, STRESS PERIOD   35
 UBDSV1 SAVING           STO-SS ON UNIT   1016 AT TIME STEP      5, STRESS PERIOD     35
 UBDSV1 SAVING           STO-SY ON UNIT   1016 AT TIME STEP      5, STRESS PERIOD     35
 UBDSV1 SAVING     FLOW-JA-FACE ON UNIT   1016 AT TIME STEP      5, STRESS PERIOD     35
 UBDSV06 SAVING              RCH IN MODEL TEST_TRANS       PACKAGE TEST_TRANS      CONNECTED TO MODEL TEST_TRANS       PACKAGE RCHA             ON UNIT   1016 AT TIME STEP      5, STRESS PERIOD     35
 UBDSV06 SAVING              CHD IN MODEL TEST_TRANS       PACKAGE TEST_TRANS      CONNECTED TO MODEL TEST_TRANS       PACKAGE CHD              ON UNIT   1016 AT TIME STEP      5, STRESS PERIOD     35

 HEAD WILL BE SAVED ON UNIT 1017 AT END OF TIME STEP    5, STRESS PERIOD   35
 UBDSV1 SAVING           STO-SS ON UNIT   1016 AT TIME STEP      6, STRESS PERIOD     35
 UBDSV1 SAVING           STO-SY ON UNIT   1016 AT TIME STEP      6, STRESS PERIOD     35
 UBDSV1 SAVING     FLOW-JA-FACE ON UNIT   1016 AT TIME STEP      6, STRESS PERIOD     35
 UBDSV06 SAVING              RCH IN MODEL TEST_TRANS       PACKAGE TEST_TRANS      CONNECTED TO MODEL TEST_TRANS       PACKAGE RCHA             ON UNIT   1016 AT TIME STEP      6, STRESS PERIOD     35
 UBDSV06 SAVING              CHD IN MODEL TEST_TRANS       PACKAGE TEST_TRANS      CONNECTED TO MODEL TEST_TRANS       PACKAGE CHD              ON UNIT   1016 AT TIME STEP      6, STRESS PERIOD     35

 HEAD WILL BE SAVED ON UNIT 1017 AT END OF TIME STEP    6, STRESS PERIOD   35
 UBDSV1 SAVING           STO-SS ON UNIT   1016 AT TIME STEP      7, STRESS PERIOD     35
 UBDSV1 SAVING           STO-SY ON UNIT   1016 AT TIME STEP      7, STRESS PERIOD     35
 UBDSV1 SAVING     FLOW-JA-FACE ON UNIT   1016 AT TIME STEP      7, STRESS PERIOD     35
 UBDSV06 SAVING              RCH IN MODEL TEST_TRANS       PACKAGE TEST_TRANS      CONNECTED TO MODEL TEST_TRANS       PACKAGE RCHA             ON UNIT   1016 AT TIME STEP      7, STRESS PERIOD     35
 UBDSV06 SAVING              CHD IN MODEL TEST_TRANS       PACKAGE TEST_TRANS      CONNECTED TO MODEL TEST_TRANS       PACKAGE CHD              ON UNIT   1016 AT TIME STEP      7, STRESS PERIOD     35

 HEAD WILL BE SAVED ON UNIT 1017 AT END OF TIME STEP    7, STRESS PERIOD   35
 UBDSV1 SAVING           STO-SS ON UNIT   1016 AT TIME STEP      8, STRESS PERIOD     35
 UBDSV1 SAVING           STO-SY ON UNIT   1016 AT TIME STEP      8, STRESS PERIOD     35
 UBDSV1 SAVING     FLOW-JA-FACE ON UNIT   1016 AT TIME STEP      8, STRESS PERIOD     35
 UBDSV06 SAVING              RCH IN MODEL TEST_TRANS       PACKAGE TEST_TRANS      CONNECTED TO MODEL TEST_TRANS       PACKAGE RCHA             ON UNIT   1016 AT TIME STEP      8, STRESS PERIOD     35
 UBDSV06 SAVING              CHD IN MODEL TEST_TRANS       PACKAGE TEST_TRANS      CONNECTED TO MODEL TEST_TRANS       PACKAGE CHD              ON UNIT   1016 AT TIME STEP      8, STRESS PERIOD     35

 HEAD WILL BE SAVED ON UNIT 1017 AT END OF TIME STEP    8, STRESS PERIOD   35
 UBDSV1 SAVING           STO-SS ON UNIT   1016 AT TIME STEP      9, STRESS PERIOD     35
 UBDSV1 SAVING           STO-SY ON UNIT   1016 AT TIME STEP      9, STRESS PERIOD     35
 UBDSV1 SAVING     FLOW-JA-FACE ON UNIT   1016 AT TIME STEP      9, STRESS PERIOD     35
 UBDSV06 SAVING              RCH IN MODEL TEST_TRANS       PACKAGE TEST_TRANS      CONNECTED TO MODEL TEST_TRANS       PACKAGE RCHA             ON UNIT   1016 AT TIME STEP      9, STRESS PERIOD     35
 UBDSV06 SAVING              CHD IN MODEL TEST_TRANS       PACKAGE TEST_TRANS      CONNECTED TO MODEL TEST_TRANS       PACKAGE CHD              ON UNIT   1016 AT TIME STEP      9, STRESS PERIOD     35

 HEAD WILL BE SAVED ON UNIT 1017 AT END OF TIME STEP    9, STRESS PERIOD   35
 UBDSV1 SAVING           STO-SS ON UNIT   1016 AT TIME STEP     10, STRESS PERIOD     35
 UBDSV1 SAVING           STO-SY ON UNIT   1016 AT TIME STEP     10, STRESS PERIOD     35
 UBDSV1 SAVING     FLOW-JA-FACE ON UNIT   1016 AT TIME STEP     10, STRESS PERIOD     35
 UBDSV06 SAVING              RCH IN MODEL TEST_TRANS       PACKAGE TEST_TRANS      CONNECTED TO MODEL TEST_TRANS       PACKAGE RCHA             ON UNIT   1016 AT TIME STEP     10, STRESS PERIOD     35
 UBDSV06 SAVING              CHD IN MODEL TEST_TRANS       PACKAGE TEST_TRANS      CONNECTED TO MODEL TEST_TRANS       PACKAGE CHD              ON UNIT   1016 AT TIME STEP     10, STRESS PERIOD     35
1
  HEAD IN LAYER   1 AT END OF TIME STEP  10 IN STRESS PERIOD   35
  ---------------------------------------------------------------------------

            1           2           3           4           5           6           7           8           9          10
           11          12          13          14          15          16          17          18          19          20
           21          22          23          24          25          26          27          28          29          30
 ........................................................................................................................
   1    27.81       27.80       27.79       27.78       27.76       27.74       27.71       27.68       27.64       27.60    
        27.55       27.50       27.44       27.37       27.30       27.22       27.13       27.03       26.92       26.80    
        26.67       26.53       26.37       26.19       26.00       25.77       25.52       25.22       24.85       24.36    
   2    27.81       27.80       27.79       27.78       27.76       27.74       27.71       27.68       27.64       27.60    
        27.55       27.50       27.44       27.37       27.30       27.22       27.13       27.03       26.92       26.80    
        26.67       26.53       26.37       26.19       26.00       25.77       25.52       25.22       24.85       24.36    
   3    27.81       27.80       27.79       27.78       27.76       27.74       27.71       27.68       27.64       27.60    
        27.55       27.50       27.44       27.37       27.30       27.22       27.13       27.03       26.92       26.80    
        26.67       26.53       26.37       26.19       26.00       25.77       25.52       25.22       24.85       24.36    
   4    27.81       27.80       27.79       27.78       27.76       27.74       27.71       27.68       27.64       27.60    
        27.55       27.50       27.44       27.37       27.30       27.22       27.13       27.03       26.92       26.80    
        26.67       26.53       26.37       26.19       26.00       25.77       25.52       25.22       24.85       24.36    
   5    27.81       27.80       27.79       27.78       27.76       27.74       27.71       27.68       27.64       27.60    
        27.55       27.50       27.44       27.37       27.30       27.22       27.13       27.03       26.92       26.80    
        26.67       26.53       26.37       26.19       26.00       25.77       25.52       25.22       24.85       24.36    
   6    27.81       27.80       27.79       27.78       27.76       27.74       27.71       27.68       27.64       27.60    
        27.55       27.50       27.44       27.37       27.30       27.22       27.13       27.03       26.92       26.80    
        26.67       26.53       26.37       26.19       26.00       25.77       25.52       25.22       24.85       24.36    
   7    27.81       27.80       27.79       27.78       27.76       27.74       27.71       27.68       27.64       27.60    
        27.55       27.50       27.44       27.37       27.30       27.22       27.13       27.03       26.92       26.80    
        26.67       26.53       26.37       26.19       26.00       25.77       25.52       25.22       24.85       24.36    
   8    27.81       27.80       27.79       27.78       27.76       27.74       27.71       27.68       27.64       27.60    
        27.55       27.50       27.44       27.37       27.30       27.22       27.13       27.03       26.92       26.80    
        26.67       26.53       26.37       26.19       26.00       25.77       25.52       25.22       24.85       24.36    
   9    27.81       27.80       27.79       27.78       27.76       27.74       27.71       27.68       27.64       27.60    
        27.55       27.50       27.44       27.37       27.30       27.22       27.13       27.03       26.92       26.80    
        26.67       26.53       26.37       26.19       26.00       25.77       25.52       25.22       24.85       24.36    
  10    27.81       27.80       27.79       27.78       27.76       27.74       27.71       27.68       27.64       27.60    
        27.55       27.50       27.44       27.37       27.30       27.22       27.13       27.03       26.92       26.80    
        26.67       26.53       26.37       26.19       26.00       25.77       25.52       25.22       24.85       24.36    
  11    27.81       27.80       27.79       27.78       27.76       27.74       27.71       27.68       27.64       27.60    
        27.55       27.50       27.44       27.37       27.30       27.22       27.13       27.03       26.92       26.80    
        26.67       26.53       26.37       26.19       26.00       25.77       25.52       25.22       24.85       24.36    
  12    27.81       27.80       27.79       27.78       27.76       27.74       27.71       27.68       27.64       27.60    
        27.55       27.50       27.44       27.37       27.30       27.22       27.13       27.03       26.92       26.80    
        26.67       26.53       26.37       26.19       26.00       25.77       25.52       25.22       24.85       24.36    
  13    27.81       27.80       27.79       27.78       27.76       27.74       27.71       27.68       27.64       27.60    
        27.55       27.50       27.44       27.37       27.30       27.22       27.13       27.03       26.92       26.80    
        26.67       26.53       26.37       26.19       26.00       25.77       25.52       25.22       24.85       24.36    
  14    27.81       27.80       27.79       27.78       27.76       27.74       27.71       27.68       27.64       27.60    
        27.55       27.50       27.44       27.37       27.30       27.22       27.13       27.03       26.92       26.80    
        26.67       26.53       26.37       26.19       26.00       25.77       25.52       25.22       24.85       24.36    
  15    27.81       27.80       27.79       27.78       27.76       27.74       27.71       27.68       27.64       27.60    
        27.55       27.50       27.44       27.37       27.30       27.22       27.13       27.03       26.92       26.80    
        26.67       26.53       26.37       26.19       26.00       25.77       25.52       25.22       24.85       24.36    
  16    27.81       27.80       27.79       27.78       27.76       27.74       27.71       27.68       27.64       27.60    
        27.55       27.50       27.44       27.37       27.30       27.22       27.13       27.03       26.92       26.80    
        26.67       26.53       26.37       26.19       26.00       25.77       25.52       25.22       24.85       24.36    
  17    27.81       27.80       27.79       27.78       27.76       27.74       27.71       27.68       27.64       27.60    
        27.55       27.50       27.44       27.37       27.30       27.22       27.13       27.03       26.92       26.80    
        26.67       26.53       26.37       26.19       26.00       25.77       25.52       25.22       24.85       24.36    
  18    27.81       27.80       27.79       27.78       27.76       27.74       27.71       27.68       27.64       27.60    
        27.55       27.50       27.44       27.37       27.30       27.22       27.13       27.03       26.92       26.80    
        26.67       26.53       26.37       26.19       26.00       25.77       25.52       25.22       24.85       24.36    
  19    27.81       27.80       27.79       27.78       27.76       27.74       27.71       27.68       27.64       27.60    
        27.55       27.50       27.44       27.37       27.30       27.22       27.13       27.03       26.92       26.80    
        26.67       26.53       26.37       26.19       26.00       25.77       25.52       25.22       24.85       24.36    
  20    27.81       27.80       27.79       27.78       27.76       27.74       27.71       27.68       27.64       27.60    
        27.55       27.50       27.44       27.37       27.30       27.22       27.13       27.03       26.92       26.80    
        26.67       26.53       26.37       26.19       26.00       25.77       25.52       25.22       24.85       24.36    
  21    27.81       27.80       27.79       27.78       27.76       27.74       27.71       27.68       27.64       27.60    
        27.55       27.50       27.44       27.37       27.30       27.22       27.13       27.03       26.92       26.80    
        26.67       26.53       26.37       26.19       26.00       25.77       25.52       25.22       24.85       24.36    
  22    27.81       27.80       27.79       27.78       27.76       27.74       27.71       27.68       27.64       27.60    
        27.55       27.50       27.44       27.37       27.30       27.22       27.13       27.03       26.92       26.80    
        26.67       26.53       26.37       26.19       26.00       25.77       25.52       25.22       24.85       24.36    
  23    27.81       27.80       27.79       27.78       27.76       27.74       27.71       27.68       27.64       27.60    
        27.55       27.50       27.44       27.37       27.30       27.22       27.13       27.03       26.92       26.80    
        26.67       26.53       26.37       26.19       26.00       25.77       25.52       25.22       24.85       24.36    
  24    27.81       27.80       27.79       27.78       27.76       27.74       27.71       27.68       27.64       27.60    
        27.55       27.50       27.44       27.37       27.30       27.22       27.13       27.03       26.92       26.80    
        26.67       26.53       26.37       26.19       26.00       25.77       25.52       25.22       24.85       24.36    
  25    27.81       27.80       27.79       27.78       27.76       27.74       27.71       27.68       27.64       27.60    
        27.55       27.50       27.44       27.37       27.30       27.22       27.13       27.03       26.92       26.80    
        26.67       26.53       26.37       26.19       26.00       25.77       25.52       25.22       24.85       24.36    
  26    27.81       27.80       27.79       27.78       27.76       27.74       27.71       27.68       27.64       27.60    
        27.55       27.50       27.44       27.37       27.30       27.22       27.13       27.03       26.92       26.80    
        26.67       26.53       26.37       26.19       26.00       25.77       25.52       25.22       24.85       24.36    
  27    27.81       27.80       27.79       27.78       27.76       27.74       27.71       27.68       27.64       27.60    
        27.55       27.50       27.44       27.37       27.30       27.22       27.13       27.03       26.92       26.80    
        26.67       26.53       26.37       26.19       26.00       25.77       25.52       25.22       24.85       24.36    
  28    27.81       27.80       27.79       27.78       27.76       27.74       27.71       27.68       27.64       27.60    
        27.55       27.50       27.44       27.37       27.30       27.22       27.13       27.03       26.92       26.80    
        26.67       26.53       26.37       26.19       26.00       25.77       25.52       25.22       24.85       24.36    
  29    27.81       27.80       27.79       27.78       27.76       27.74       27.71       27.68       27.64       27.60    
        27.55       27.50       27.44       27.37       27.30       27.22       27.13       27.03       26.92       26.80    
        26.67       26.53       26.37       26.19       26.00       25.77       25.52       25.22       24.85       24.36    
  30    27.81       27.80       27.79       27.78       27.76       27.74       27.71       27.68       27.64       27.60    
        27.55       27.50       27.44       27.37       27.30       27.22       27.13       27.03       26.92       26.80    
        26.67       26.53       26.37       26.19       26.00       25.77       25.52       25.22       24.85       24.36    

 HEAD WILL BE SAVED ON UNIT 1017 AT END OF TIME STEP   10, STRESS PERIOD   35


  VOLUME BUDGET FOR ENTIRE MODEL AT END OF TIME STEP   10, STRESS PERIOD  35
  ---------------------------------------------------------------------------------------------------

     CUMULATIVE VOLUME      L**3       RATES FOR THIS TIME STEP      L**3/T          PACKAGE NAME    
     ------------------                 ------------------------                     ----------------

           IN:                                      IN:
           ---                                      ---
              STO-SS =          56.5483                STO-SS =       1.0831E-02     STORAGE         
              STO-SY =       35957.4633                STO-SY =           7.5071     STORAGE         
                 RCH =      165061.7071                   RCH =         214.5203     RCHA            
                 CHD =           0.0000                   CHD =           0.0000     CHD             

            TOTAL IN =      201075.7187              TOTAL IN =         222.0382

          OUT:                                     OUT:
          ----                                     ----
              STO-SS =          36.2520                STO-SS =       3.6240E-02     STORAGE         
              STO-SY =       23234.0625                STO-SY =          22.4439     STORAGE         
                 RCH =           0.0000                   RCH =           0.0000     RCHA            
                 CHD =      177804.4585                   CHD =         199.5550     CHD             

           TOTAL OUT =      201074.7731             TOTAL OUT =         222.0352

            IN - OUT =           0.9456              IN - OUT =       2.9581E-03

 PERCENT DISCREPANCY =           0.00     PERCENT DISCREPANCY =           0.00




         TIME SUMMARY AT END OF TIME STEP   10 IN STRESS PERIOD   35
                    SECONDS     MINUTES      HOURS       DAYS        YEARS
                    -----------------------------------------------------------
   TIME STEP LENGTH 2.59200E+05  4320.0      72.000      3.0000     8.21355E-03
 STRESS PERIOD TIME 2.59200E+06  43200.      720.00      30.000     8.21355E-02
         TOTAL TIME 8.82144E+07 1.47024E+06  24504.      1021.0      2.7953    

 OUTPUT CONTROL FOR STRESS PERIOD 36 IS REPEATED USING SETTINGS FROM A PREVIOUS STRESS PERIOD.


 STRESS PERIOD 36 IS TRANSIENT


                 RECHARGE =  0.2739730E-02
 UBDSV1 SAVING           STO-SS ON UNIT   1016 AT TIME STEP      1, STRESS PERIOD     36
 UBDSV1 SAVING           STO-SY ON UNIT   1016 AT TIME STEP      1, STRESS PERIOD     36
 UBDSV1 SAVING     FLOW-JA-FACE ON UNIT   1016 AT TIME STEP      1, STRESS PERIOD     36
 UBDSV06 SAVING              RCH IN MODEL TEST_TRANS       PACKAGE TEST_TRANS      CONNECTED TO MODEL TEST_TRANS       PACKAGE RCHA             ON UNIT   1016 AT TIME STEP      1, STRESS PERIOD     36
 UBDSV06 SAVING              CHD IN MODEL TEST_TRANS       PACKAGE TEST_TRANS      CONNECTED TO MODEL TEST_TRANS       PACKAGE CHD              ON UNIT   1016 AT TIME STEP      1, STRESS PERIOD     36
1
  HEAD IN LAYER   1 AT END OF TIME STEP   1 IN STRESS PERIOD   36
  ---------------------------------------------------------------------------

            1           2           3           4           5           6           7           8           9          10
           11          12          13          14          15          16          17          18          19          20
           21          22          23          24          25          26          27          28          29          30
 ........................................................................................................................
   1    27.82       27.82       27.81       27.79       27.78       27.75       27.72       27.69       27.65       27.61    
        27.56       27.51       27.45       27.38       27.30       27.22       27.13       27.03       26.92       26.81    
        26.68       26.53       26.37       26.19       26.00       25.77       25.52       25.21       24.84       24.34    
   2    27.82       27.82       27.81       27.79       27.78       27.75       27.72       27.69       27.65       27.61    
        27.56       27.51       27.45       27.38       27.30       27.22       27.13       27.03       26.92       26.81    
        26.68       26.53       26.37       26.19       26.00       25.77       25.52       25.21       24.84       24.34    
   3    27.82       27.82       27.81       27.79       27.78       27.75       27.72       27.69       27.65       27.61    
        27.56       27.51       27.45       27.38       27.30       27.22       27.13       27.03       26.92       26.81    
        26.68       26.53       26.37       26.19       26.00       25.77       25.52       25.21       24.84       24.34    
   4    27.82       27.82       27.81       27.79       27.78       27.75       27.72       27.69       27.65       27.61    
        27.56       27.51       27.45       27.38       27.30       27.22       27.13       27.03       26.92       26.81    
        26.68       26.53       26.37       26.19       26.00       25.77       25.52       25.21       24.84       24.34    
   5    27.82       27.82       27.81       27.79       27.78       27.75       27.72       27.69       27.65       27.61    
        27.56       27.51       27.45       27.38       27.30       27.22       27.13       27.03       26.92       26.81    
        26.68       26.53       26.37       26.19       26.00       25.77       25.52       25.21       24.84       24.34    
   6    27.82       27.82       27.81       27.79       27.78       27.75       27.72       27.69       27.65       27.61    
        27.56       27.51       27.45       27.38       27.30       27.22       27.13       27.03       26.92       26.81    
        26.68       26.53       26.37       26.19       26.00       25.77       25.52       25.21       24.84       24.34    
   7    27.82       27.82       27.81       27.79       27.78       27.75       27.72       27.69       27.65       27.61    
        27.56       27.51       27.45       27.38       27.30       27.22       27.13       27.03       26.92       26.81    
        26.68       26.53       26.37       26.19       26.00       25.77       25.52       25.21       24.84       24.34    
   8    27.82       27.82       27.81       27.79       27.78       27.75       27.72       27.69       27.65       27.61    
        27.56       27.51       27.45       27.38       27.30       27.22       27.13       27.03       26.92       26.81    
        26.68       26.53       26.37       26.19       26.00       25.77       25.52       25.21       24.84       24.34    
   9    27.82       27.82       27.81       27.79       27.78       27.75       27.72       27.69       27.65       27.61    
        27.56       27.51       27.45       27.38       27.30       27.22       27.13       27.03       26.92       26.81    
        26.68       26.53       26.37       26.19       26.00       25.77       25.52       25.21       24.84       24.34    
  10    27.82       27.82       27.81       27.79       27.78       27.75       27.72       27.69       27.65       27.61    
        27.56       27.51       27.45       27.38       27.30       27.22       27.13       27.03       26.92       26.81    
        26.68       26.53       26.37       26.19       26.00       25.77       25.52       25.21       24.84       24.34    
  11    27.82       27.82       27.81       27.79       27.78       27.75       27.72       27.69       27.65       27.61    
        27.56       27.51       27.45       27.38       27.30       27.22       27.13       27.03       26.92       26.81    
        26.68       26.53       26.37       26.19       26.00       25.77       25.52       25.21       24.84       24.34    
  12    27.82       27.82       27.81       27.79       27.78       27.75       27.72       27.69       27.65       27.61    
        27.56       27.51       27.45       27.38       27.30       27.22       27.13       27.03       26.92       26.81    
        26.68       26.53       26.37       26.19       26.00       25.77       25.52       25.21       24.84       24.34    
  13    27.82       27.82       27.81       27.79       27.78       27.75       27.72       27.69       27.65       27.61    
        27.56       27.51       27.45       27.38       27.30       27.22       27.13       27.03       26.92       26.81    
        26.68       26.53       26.37       26.19       26.00       25.77       25.52       25.21       24.84       24.34    
  14    27.82       27.82       27.81       27.79       27.78       27.75       27.72       27.69       27.65       27.61    
        27.56       27.51       27.45       27.38       27.30       27.22       27.13       27.03       26.92       26.81    
        26.68       26.53       26.37       26.19       26.00       25.77       25.52       25.21       24.84       24.34    
  15    27.82       27.82       27.81       27.79       27.78       27.75       27.72       27.69       27.65       27.61    
        27.56       27.51       27.45       27.38       27.30       27.22       27.13       27.03       26.92       26.81    
        26.68       26.53       26.37       26.19       26.00       25.77       25.52       25.21       24.84       24.34    
  16    27.82       27.82       27.81       27.79       27.78       27.75       27.72       27.69       27.65       27.61    
        27.56       27.51       27.45       27.38       27.30       27.22       27.13       27.03       26.92       26.81    
        26.68       26.53       26.37       26.19       26.00       25.77       25.52       25.21       24.84       24.34    
  17    27.82       27.82       27.81       27.79       27.78       27.75       27.72       27.69       27.65       27.61    
        27.56       27.51       27.45       27.38       27.30       27.22       27.13       27.03       26.92       26.81    
        26.68       26.53       26.37       26.19       26.00       25.77       25.52       25.21       24.84       24.34    
  18    27.82       27.82       27.81       27.79       27.78       27.75       27.72       27.69       27.65       27.61    
        27.56       27.51       27.45       27.38       27.30       27.22       27.13       27.03       26.92       26.81    
        26.68       26.53       26.37       26.19       26.00       25.77       25.52       25.21       24.84       24.34    
  19    27.82       27.82       27.81       27.79       27.78       27.75       27.72       27.69       27.65       27.61    
        27.56       27.51       27.45       27.38       27.30       27.22       27.13       27.03       26.92       26.81    
        26.68       26.53       26.37       26.19       26.00       25.77       25.52       25.21       24.84       24.34    
  20    27.82       27.82       27.81       27.79       27.78       27.75       27.72       27.69       27.65       27.61    
        27.56       27.51       27.45       27.38       27.30       27.22       27.13       27.03       26.92       26.81    
        26.68       26.53       26.37       26.19       26.00       25.77       25.52       25.21       24.84       24.34    
  21    27.82       27.82       27.81       27.79       27.78       27.75       27.72       27.69       27.65       27.61    
        27.56       27.51       27.45       27.38       27.30       27.22       27.13       27.03       26.92       26.81    
        26.68       26.53       26.37       26.19       26.00       25.77       25.52       25.21       24.84       24.34    
  22    27.82       27.82       27.81       27.79       27.78       27.75       27.72       27.69       27.65       27.61    
        27.56       27.51       27.45       27.38       27.30       27.22       27.13       27.03       26.92       26.81    
        26.68       26.53       26.37       26.19       26.00       25.77       25.52       25.21       24.84       24.34    
  23    27.82       27.82       27.81       27.79       27.78       27.75       27.72       27.69       27.65       27.61    
        27.56       27.51       27.45       27.38       27.30       27.22       27.13       27.03       26.92       26.81    
        26.68       26.53       26.37       26.19       26.00       25.77       25.52       25.21       24.84       24.34    
  24    27.82       27.82       27.81       27.79       27.78       27.75       27.72       27.69       27.65       27.61    
        27.56       27.51       27.45       27.38       27.30       27.22       27.13       27.03       26.92       26.81    
        26.68       26.53       26.37       26.19       26.00       25.77       25.52       25.21       24.84       24.34    
  25    27.82       27.82       27.81       27.79       27.78       27.75       27.72       27.69       27.65       27.61    
        27.56       27.51       27.45       27.38       27.30       27.22       27.13       27.03       26.92       26.81    
        26.68       26.53       26.37       26.19       26.00       25.77       25.52       25.21       24.84       24.34    
  26    27.82       27.82       27.81       27.79       27.78       27.75       27.72       27.69       27.65       27.61    
        27.56       27.51       27.45       27.38       27.30       27.22       27.13       27.03       26.92       26.81    
        26.68       26.53       26.37       26.19       26.00       25.77       25.52       25.21       24.84       24.34    
  27    27.82       27.82       27.81       27.79       27.78       27.75       27.72       27.69       27.65       27.61    
        27.56       27.51       27.45       27.38       27.30       27.22       27.13       27.03       26.92       26.81    
        26.68       26.53       26.37       26.19       26.00       25.77       25.52       25.21       24.84       24.34    
  28    27.82       27.82       27.81       27.79       27.78       27.75       27.72       27.69       27.65       27.61    
        27.56       27.51       27.45       27.38       27.30       27.22       27.13       27.03       26.92       26.81    
        26.68       26.53       26.37       26.19       26.00       25.77       25.52       25.21       24.84       24.34    
  29    27.82       27.82       27.81       27.79       27.78       27.75       27.72       27.69       27.65       27.61    
        27.56       27.51       27.45       27.38       27.30       27.22       27.13       27.03       26.92       26.81    
        26.68       26.53       26.37       26.19       26.00       25.77       25.52       25.21       24.84       24.34    
  30    27.82       27.82       27.81       27.79       27.78       27.75       27.72       27.69       27.65       27.61    
        27.56       27.51       27.45       27.38       27.30       27.22       27.13       27.03       26.92       26.81    
        26.68       26.53       26.37       26.19       26.00       25.77       25.52       25.21       24.84       24.34    

 HEAD WILL BE SAVED ON UNIT 1017 AT END OF TIME STEP    1, STRESS PERIOD   36



         TIME SUMMARY AT END OF TIME STEP    1 IN STRESS PERIOD   36
                    SECONDS     MINUTES      HOURS       DAYS        YEARS
                    -----------------------------------------------------------
   TIME STEP LENGTH 2.59200E+05  4320.0      72.000      3.0000     8.21355E-03
 STRESS PERIOD TIME 2.59200E+05  4320.0      72.000      3.0000     8.21355E-03
         TOTAL TIME 8.84736E+07 1.47456E+06  24576.      1024.0      2.8036    
 UBDSV1 SAVING           STO-SS ON UNIT   1016 AT TIME STEP      2, STRESS PERIOD     36
 UBDSV1 SAVING           STO-SY ON UNIT   1016 AT TIME STEP      2, STRESS PERIOD     36
 UBDSV1 SAVING     FLOW-JA-FACE ON UNIT   1016 AT TIME STEP      2, STRESS PERIOD     36
 UBDSV06 SAVING              RCH IN MODEL TEST_TRANS       PACKAGE TEST_TRANS      CONNECTED TO MODEL TEST_TRANS       PACKAGE RCHA             ON UNIT   1016 AT TIME STEP      2, STRESS PERIOD     36
 UBDSV06 SAVING              CHD IN MODEL TEST_TRANS       PACKAGE TEST_TRANS      CONNECTED TO MODEL TEST_TRANS       PACKAGE CHD              ON UNIT   1016 AT TIME STEP      2, STRESS PERIOD     36

 HEAD WILL BE SAVED ON UNIT 1017 AT END OF TIME STEP    2, STRESS PERIOD   36
 UBDSV1 SAVING           STO-SS ON UNIT   1016 AT TIME STEP      3, STRESS PERIOD     36
 UBDSV1 SAVING           STO-SY ON UNIT   1016 AT TIME STEP      3, STRESS PERIOD     36
 UBDSV1 SAVING     FLOW-JA-FACE ON UNIT   1016 AT TIME STEP      3, STRESS PERIOD     36
 UBDSV06 SAVING              RCH IN MODEL TEST_TRANS       PACKAGE TEST_TRANS      CONNECTED TO MODEL TEST_TRANS       PACKAGE RCHA             ON UNIT   1016 AT TIME STEP      3, STRESS PERIOD     36
 UBDSV06 SAVING              CHD IN MODEL TEST_TRANS       PACKAGE TEST_TRANS      CONNECTED TO MODEL TEST_TRANS       PACKAGE CHD              ON UNIT   1016 AT TIME STEP      3, STRESS PERIOD     36

 HEAD WILL BE SAVED ON UNIT 1017 AT END OF TIME STEP    3, STRESS PERIOD   36
 UBDSV1 SAVING           STO-SS ON UNIT   1016 AT TIME STEP      4, STRESS PERIOD     36
 UBDSV1 SAVING           STO-SY ON UNIT   1016 AT TIME STEP      4, STRESS PERIOD     36
 UBDSV1 SAVING     FLOW-JA-FACE ON UNIT   1016 AT TIME STEP      4, STRESS PERIOD     36
 UBDSV06 SAVING              RCH IN MODEL TEST_TRANS       PACKAGE TEST_TRANS      CONNECTED TO MODEL TEST_TRANS       PACKAGE RCHA             ON UNIT   1016 AT TIME STEP      4, STRESS PERIOD     36
 UBDSV06 SAVING              CHD IN MODEL TEST_TRANS       PACKAGE TEST_TRANS      CONNECTED TO MODEL TEST_TRANS       PACKAGE CHD              ON UNIT   1016 AT TIME STEP      4, STRESS PERIOD     36

 HEAD WILL BE SAVED ON UNIT 1017 AT END OF TIME STEP    4, STRESS PERIOD   36
 UBDSV1 SAVING           STO-SS ON UNIT   1016 AT TIME STEP      5, STRESS PERIOD     36
 UBDSV1 SAVING           STO-SY ON UNIT   1016 AT TIME STEP      5, STRESS PERIOD     36
 UBDSV1 SAVING     FLOW-JA-FACE ON UNIT   1016 AT TIME STEP      5, STRESS PERIOD     36
 UBDSV06 SAVING              RCH IN MODEL TEST_TRANS       PACKAGE TEST_TRANS      CONNECTED TO MODEL TEST_TRANS       PACKAGE RCHA             ON UNIT   1016 AT TIME STEP      5, STRESS PERIOD     36
 UBDSV06 SAVING              CHD IN MODEL TEST_TRANS       PACKAGE TEST_TRANS      CONNECTED TO MODEL TEST_TRANS       PACKAGE CHD              ON UNIT   1016 AT TIME STEP      5, STRESS PERIOD     36

 HEAD WILL BE SAVED ON UNIT 1017 AT END OF TIME STEP    5, STRESS PERIOD   36
 UBDSV1 SAVING           STO-SS ON UNIT   1016 AT TIME STEP      6, STRESS PERIOD     36
 UBDSV1 SAVING           STO-SY ON UNIT   1016 AT TIME STEP      6, STRESS PERIOD     36
 UBDSV1 SAVING     FLOW-JA-FACE ON UNIT   1016 AT TIME STEP      6, STRESS PERIOD     36
 UBDSV06 SAVING              RCH IN MODEL TEST_TRANS       PACKAGE TEST_TRANS      CONNECTED TO MODEL TEST_TRANS       PACKAGE RCHA             ON UNIT   1016 AT TIME STEP      6, STRESS PERIOD     36
 UBDSV06 SAVING              CHD IN MODEL TEST_TRANS       PACKAGE TEST_TRANS      CONNECTED TO MODEL TEST_TRANS       PACKAGE CHD              ON UNIT   1016 AT TIME STEP      6, STRESS PERIOD     36

 HEAD WILL BE SAVED ON UNIT 1017 AT END OF TIME STEP    6, STRESS PERIOD   36
 UBDSV1 SAVING           STO-SS ON UNIT   1016 AT TIME STEP      7, STRESS PERIOD     36
 UBDSV1 SAVING           STO-SY ON UNIT   1016 AT TIME STEP      7, STRESS PERIOD     36
 UBDSV1 SAVING     FLOW-JA-FACE ON UNIT   1016 AT TIME STEP      7, STRESS PERIOD     36
 UBDSV06 SAVING              RCH IN MODEL TEST_TRANS       PACKAGE TEST_TRANS      CONNECTED TO MODEL TEST_TRANS       PACKAGE RCHA             ON UNIT   1016 AT TIME STEP      7, STRESS PERIOD     36
 UBDSV06 SAVING              CHD IN MODEL TEST_TRANS       PACKAGE TEST_TRANS      CONNECTED TO MODEL TEST_TRANS       PACKAGE CHD              ON UNIT   1016 AT TIME STEP      7, STRESS PERIOD     36

 HEAD WILL BE SAVED ON UNIT 1017 AT END OF TIME STEP    7, STRESS PERIOD   36
 UBDSV1 SAVING           STO-SS ON UNIT   1016 AT TIME STEP      8, STRESS PERIOD     36
 UBDSV1 SAVING           STO-SY ON UNIT   1016 AT TIME STEP      8, STRESS PERIOD     36
 UBDSV1 SAVING     FLOW-JA-FACE ON UNIT   1016 AT TIME STEP      8, STRESS PERIOD     36
 UBDSV06 SAVING              RCH IN MODEL TEST_TRANS       PACKAGE TEST_TRANS      CONNECTED TO MODEL TEST_TRANS       PACKAGE RCHA             ON UNIT   1016 AT TIME STEP      8, STRESS PERIOD     36
 UBDSV06 SAVING              CHD IN MODEL TEST_TRANS       PACKAGE TEST_TRANS      CONNECTED TO MODEL TEST_TRANS       PACKAGE CHD              ON UNIT   1016 AT TIME STEP      8, STRESS PERIOD     36

 HEAD WILL BE SAVED ON UNIT 1017 AT END OF TIME STEP    8, STRESS PERIOD   36
 UBDSV1 SAVING           STO-SS ON UNIT   1016 AT TIME STEP      9, STRESS PERIOD     36
 UBDSV1 SAVING           STO-SY ON UNIT   1016 AT TIME STEP      9, STRESS PERIOD     36
 UBDSV1 SAVING     FLOW-JA-FACE ON UNIT   1016 AT TIME STEP      9, STRESS PERIOD     36
 UBDSV06 SAVING              RCH IN MODEL TEST_TRANS       PACKAGE TEST_TRANS      CONNECTED TO MODEL TEST_TRANS       PACKAGE RCHA             ON UNIT   1016 AT TIME STEP      9, STRESS PERIOD     36
 UBDSV06 SAVING              CHD IN MODEL TEST_TRANS       PACKAGE TEST_TRANS      CONNECTED TO MODEL TEST_TRANS       PACKAGE CHD              ON UNIT   1016 AT TIME STEP      9, STRESS PERIOD     36

 HEAD WILL BE SAVED ON UNIT 1017 AT END OF TIME STEP    9, STRESS PERIOD   36
 UBDSV1 SAVING           STO-SS ON UNIT   1016 AT TIME STEP     10, STRESS PERIOD     36
 UBDSV1 SAVING           STO-SY ON UNIT   1016 AT TIME STEP     10, STRESS PERIOD     36
 UBDSV1 SAVING     FLOW-JA-FACE ON UNIT   1016 AT TIME STEP     10, STRESS PERIOD     36
 UBDSV06 SAVING              RCH IN MODEL TEST_TRANS       PACKAGE TEST_TRANS      CONNECTED TO MODEL TEST_TRANS       PACKAGE RCHA             ON UNIT   1016 AT TIME STEP     10, STRESS PERIOD     36
 UBDSV06 SAVING              CHD IN MODEL TEST_TRANS       PACKAGE TEST_TRANS      CONNECTED TO MODEL TEST_TRANS       PACKAGE CHD              ON UNIT   1016 AT TIME STEP     10, STRESS PERIOD     36
1
  HEAD IN LAYER   1 AT END OF TIME STEP  10 IN STRESS PERIOD   36
  ---------------------------------------------------------------------------

            1           2           3           4           5           6           7           8           9          10
           11          12          13          14          15          16          17          18          19          20
           21          22          23          24          25          26          27          28          29          30
 ........................................................................................................................
   1    27.92       27.92       27.91       27.89       27.87       27.85       27.82       27.78       27.74       27.69    
        27.64       27.58       27.52       27.44       27.37       27.28       27.18       27.08       26.97       26.84    
        26.71       26.56       26.39       26.21       26.01       25.78       25.52       25.21       24.84       24.34    
   2    27.92       27.92       27.91       27.89       27.87       27.85       27.82       27.78       27.74       27.69    
        27.64       27.58       27.52       27.44       27.37       27.28       27.18       27.08       26.97       26.84    
        26.71       26.56       26.39       26.21       26.01       25.78       25.52       25.21       24.84       24.34    
   3    27.92       27.92       27.91       27.89       27.87       27.85       27.82       27.78       27.74       27.69    
        27.64       27.58       27.52       27.44       27.37       27.28       27.18       27.08       26.97       26.84    
        26.71       26.56       26.39       26.21       26.01       25.78       25.52       25.21       24.84       24.34    
   4    27.92       27.92       27.91       27.89       27.87       27.85       27.82       27.78       27.74       27.69    
        27.64       27.58       27.52       27.44       27.37       27.28       27.18       27.08       26.97       26.84    
        26.71       26.56       26.39       26.21       26.01       25.78       25.52       25.21       24.84       24.34    
   5    27.92       27.92       27.91       27.89       27.87       27.85       27.82       27.78       27.74       27.69    
        27.64       27.58       27.52       27.44       27.37       27.28       27.18       27.08       26.97       26.84    
        26.71       26.56       26.39       26.21       26.01       25.78       25.52       25.21       24.84       24.34    
   6    27.92       27.92       27.91       27.89       27.87       27.85       27.82       27.78       27.74       27.69    
        27.64       27.58       27.52       27.44       27.37       27.28       27.18       27.08       26.97       26.84    
        26.71       26.56       26.39       26.21       26.01       25.78       25.52       25.21       24.84       24.34    
   7    27.92       27.92       27.91       27.89       27.87       27.85       27.82       27.78       27.74       27.69    
        27.64       27.58       27.52       27.44       27.37       27.28       27.18       27.08       26.97       26.84    
        26.71       26.56       26.39       26.21       26.01       25.78       25.52       25.21       24.84       24.34    
   8    27.92       27.92       27.91       27.89       27.87       27.85       27.82       27.78       27.74       27.69    
        27.64       27.58       27.52       27.44       27.37       27.28       27.18       27.08       26.97       26.84    
        26.71       26.56       26.39       26.21       26.01       25.78       25.52       25.21       24.84       24.34    
   9    27.92       27.92       27.91       27.89       27.87       27.85       27.82       27.78       27.74       27.69    
        27.64       27.58       27.52       27.44       27.37       27.28       27.18       27.08       26.97       26.84    
        26.71       26.56       26.39       26.21       26.01       25.78       25.52       25.21       24.84       24.34    
  10    27.92       27.92       27.91       27.89       27.87       27.85       27.82       27.78       27.74       27.69    
        27.64       27.58       27.52       27.44       27.37       27.28       27.18       27.08       26.97       26.84    
        26.71       26.56       26.39       26.21       26.01       25.78       25.52       25.21       24.84       24.34    
  11    27.92       27.92       27.91       27.89       27.87       27.85       27.82       27.78       27.74       27.69    
        27.64       27.58       27.52       27.44       27.37       27.28       27.18       27.08       26.97       26.84    
        26.71       26.56       26.39       26.21       26.01       25.78       25.52       25.21       24.84       24.34    
  12    27.92       27.92       27.91       27.89       27.87       27.85       27.82       27.78       27.74       27.69    
        27.64       27.58       27.52       27.44       27.37       27.28       27.18       27.08       26.97       26.84    
        26.71       26.56       26.39       26.21       26.01       25.78       25.52       25.21       24.84       24.34    
  13    27.92       27.92       27.91       27.89       27.87       27.85       27.82       27.78       27.74       27.69    
        27.64       27.58       27.52       27.44       27.37       27.28       27.18       27.08       26.97       26.84    
        26.71       26.56       26.39       26.21       26.01       25.78       25.52       25.21       24.84       24.34    
  14    27.92       27.92       27.91       27.89       27.87       27.85       27.82       27.78       27.74       27.69    
        27.64       27.58       27.52       27.44       27.37       27.28       27.18       27.08       26.97       26.84    
        26.71       26.56       26.39       26.21       26.01       25.78       25.52       25.21       24.84       24.34    
  15    27.92       27.92       27.91       27.89       27.87       27.85       27.82       27.78       27.74       27.69    
        27.64       27.58       27.52       27.44       27.37       27.28       27.18       27.08       26.97       26.84    
        26.71       26.56       26.39       26.21       26.01       25.78       25.52       25.21       24.84       24.34    
  16    27.92       27.92       27.91       27.89       27.87       27.85       27.82       27.78       27.74       27.69    
        27.64       27.58       27.52       27.44       27.37       27.28       27.18       27.08       26.97       26.84    
        26.71       26.56       26.39       26.21       26.01       25.78       25.52       25.21       24.84       24.34    
  17    27.92       27.92       27.91       27.89       27.87       27.85       27.82       27.78       27.74       27.69    
        27.64       27.58       27.52       27.44       27.37       27.28       27.18       27.08       26.97       26.84    
        26.71       26.56       26.39       26.21       26.01       25.78       25.52       25.21       24.84       24.34    
  18    27.92       27.92       27.91       27.89       27.87       27.85       27.82       27.78       27.74       27.69    
        27.64       27.58       27.52       27.44       27.37       27.28       27.18       27.08       26.97       26.84    
        26.71       26.56       26.39       26.21       26.01       25.78       25.52       25.21       24.84       24.34    
  19    27.92       27.92       27.91       27.89       27.87       27.85       27.82       27.78       27.74       27.69    
        27.64       27.58       27.52       27.44       27.37       27.28       27.18       27.08       26.97       26.84    
        26.71       26.56       26.39       26.21       26.01       25.78       25.52       25.21       24.84       24.34    
  20    27.92       27.92       27.91       27.89       27.87       27.85       27.82       27.78       27.74       27.69    
        27.64       27.58       27.52       27.44       27.37       27.28       27.18       27.08       26.97       26.84    
        26.71       26.56       26.39       26.21       26.01       25.78       25.52       25.21       24.84       24.34    
  21    27.92       27.92       27.91       27.89       27.87       27.85       27.82       27.78       27.74       27.69    
        27.64       27.58       27.52       27.44       27.37       27.28       27.18       27.08       26.97       26.84    
        26.71       26.56       26.39       26.21       26.01       25.78       25.52       25.21       24.84       24.34    
  22    27.92       27.92       27.91       27.89       27.87       27.85       27.82       27.78       27.74       27.69    
        27.64       27.58       27.52       27.44       27.37       27.28       27.18       27.08       26.97       26.84    
        26.71       26.56       26.39       26.21       26.01       25.78       25.52       25.21       24.84       24.34    
  23    27.92       27.92       27.91       27.89       27.87       27.85       27.82       27.78       27.74       27.69    
        27.64       27.58       27.52       27.44       27.37       27.28       27.18       27.08       26.97       26.84    
        26.71       26.56       26.39       26.21       26.01       25.78       25.52       25.21       24.84       24.34    
  24    27.92       27.92       27.91       27.89       27.87       27.85       27.82       27.78       27.74       27.69    
        27.64       27.58       27.52       27.44       27.37       27.28       27.18       27.08       26.97       26.84    
        26.71       26.56       26.39       26.21       26.01       25.78       25.52       25.21       24.84       24.34    
  25    27.92       27.92       27.91       27.89       27.87       27.85       27.82       27.78       27.74       27.69    
        27.64       27.58       27.52       27.44       27.37       27.28       27.18       27.08       26.97       26.84    
        26.71       26.56       26.39       26.21       26.01       25.78       25.52       25.21       24.84       24.34    
  26    27.92       27.92       27.91       27.89       27.87       27.85       27.82       27.78       27.74       27.69    
        27.64       27.58       27.52       27.44       27.37       27.28       27.18       27.08       26.97       26.84    
        26.71       26.56       26.39       26.21       26.01       25.78       25.52       25.21       24.84       24.34    
  27    27.92       27.92       27.91       27.89       27.87       27.85       27.82       27.78       27.74       27.69    
        27.64       27.58       27.52       27.44       27.37       27.28       27.18       27.08       26.97       26.84    
        26.71       26.56       26.39       26.21       26.01       25.78       25.52       25.21       24.84       24.34    
  28    27.92       27.92       27.91       27.89       27.87       27.85       27.82       27.78       27.74       27.69    
        27.64       27.58       27.52       27.44       27.37       27.28       27.18       27.08       26.97       26.84    
        26.71       26.56       26.39       26.21       26.01       25.78       25.52       25.21       24.84       24.34    
  29    27.92       27.92       27.91       27.89       27.87       27.85       27.82       27.78       27.74       27.69    
        27.64       27.58       27.52       27.44       27.37       27.28       27.18       27.08       26.97       26.84    
        26.71       26.56       26.39       26.21       26.01       25.78       25.52       25.21       24.84       24.34    
  30    27.92       27.92       27.91       27.89       27.87       27.85       27.82       27.78       27.74       27.69    
        27.64       27.58       27.52       27.44       27.37       27.28       27.18       27.08       26.97       26.84    
        26.71       26.56       26.39       26.21       26.01       25.78       25.52       25.21       24.84       24.34    

 HEAD WILL BE SAVED ON UNIT 1017 AT END OF TIME STEP   10, STRESS PERIOD   36


  VOLUME BUDGET FOR ENTIRE MODEL AT END OF TIME STEP   10, STRESS PERIOD  36
  ---------------------------------------------------------------------------------------------------

     CUMULATIVE VOLUME      L**3       RATES FOR THIS TIME STEP      L**3/T          PACKAGE NAME    
     ------------------                 ------------------------                     ----------------

           IN:                                      IN:
           ---                                      ---
              STO-SS =          56.5744                STO-SS =           0.0000     STORAGE         
              STO-SY =       35976.5458                STO-SY =           0.0000     STORAGE         
                 RCH =      172212.4024                   RCH =         238.3565     RCHA            
                 CHD =           0.0000                   CHD =           0.0000     CHD             

            TOTAL IN =      208245.5227              TOTAL IN =         238.3565

          OUT:                                     OUT:
          ----                                     ----
              STO-SS =          38.0263                STO-SS =       5.7030E-02     STORAGE         
              STO-SY =       24342.0753                STO-SY =          35.7486     STORAGE         
                 RCH =           0.0000                   RCH =           0.0000     RCHA            
                 CHD =      183864.7360                   CHD =         202.5595     CHD             

           TOTAL OUT =      208244.8376             TOTAL OUT =         238.3651

            IN - OUT =           0.6851              IN - OUT =      -8.5433E-03

 PERCENT DISCREPANCY =           0.00     PERCENT DISCREPANCY =          -0.00




         TIME SUMMARY AT END OF TIME STEP   10 IN STRESS PERIOD   36
                    SECONDS     MINUTES      HOURS       DAYS        YEARS
                    -----------------------------------------------------------
   TIME STEP LENGTH 2.59200E+05  4320.0      72.000      3.0000     8.21355E-03
 STRESS PERIOD TIME 2.59200E+06  43200.      720.00      30.000     8.21355E-02
         TOTAL TIME 9.08064E+07 1.51344E+06  25224.      1051.0      2.8775    
